.subckt FB_600R_0603 1 2
R1 1 NINT 570
L1 1 NINT 2.4u
C1 1 NINT 0.87p
R2 NINT 2 0.22
.ends FB_600R_0603