* WAV Audio Source Library
* Source file: test-wav.wav
* Generated: 2025-12-01 01:46:45
* Duration: 0.112925 seconds
* Sample points: 4981
* Voltage range: -30.000V to 30.000V
*
.SUBCKT AUDIO_SOURCE out gnd
* Audio voltage source from WAV file
V1 out gnd PWL(
+ 0.000000e+00 -9.584427e-04
+ 2.267574e-05 -7.581711e-04
+ 4.535147e-05 -2.038479e-04
+ 6.802721e-05 7.045269e-04
+ 9.070295e-05 1.866817e-03
+ 1.133787e-04 3.111362e-03
+ 1.360544e-04 4.209280e-03
+ 1.587302e-04 4.949570e-03
+ 1.814059e-04 5.164146e-03
+ 2.040816e-04 4.802942e-03
+ 2.267574e-04 3.926754e-03
+ 2.494331e-04 2.735853e-03
+ 2.721088e-04 1.484156e-03
+ 2.947846e-04 4.577637e-04
+ 3.174603e-04 -1.072884e-04
+ 3.401361e-04 -8.940697e-05
+ 3.628118e-04 4.756451e-04
+ 3.854875e-04 1.441240e-03
+ 4.081633e-04 2.546310e-03
+ 4.308390e-04 3.511906e-03
+ 4.535147e-04 4.080534e-03
+ 4.761905e-04 4.123449e-03
+ 4.988662e-04 3.651381e-03
+ 5.215420e-04 2.803802e-03
+ 5.442177e-04 1.834631e-03
+ 5.668934e-04 1.019239e-03
+ 5.895692e-04 5.900860e-04
+ 6.122449e-04 6.830692e-04
+ 6.349206e-04 1.273155e-03
+ 6.575964e-04 2.210140e-03
+ 6.802721e-04 3.247261e-03
+ 7.029478e-04 4.109144e-03
+ 7.256236e-04 4.581213e-03
+ 7.482993e-04 4.556179e-03
+ 7.709751e-04 4.069805e-03
+ 7.936508e-04 3.290176e-03
+ 8.163265e-04 2.478361e-03
+ 8.390023e-04 1.891851e-03
+ 8.616780e-04 1.738071e-03
+ 8.843537e-04 2.074242e-03
+ 9.070295e-04 2.843142e-03
+ 9.297052e-04 3.826618e-03
+ 9.523810e-04 4.756451e-03
+ 9.750567e-04 5.367994e-03
+ 9.977324e-04 5.468130e-03
+ 1.020408e-03 5.010366e-03
+ 1.043084e-03 4.098415e-03
+ 1.065760e-03 2.961159e-03
+ 1.088435e-03 1.888275e-03
+ 1.111111e-03 1.162291e-03
+ 1.133787e-03 9.477139e-04
+ 1.156463e-03 1.294613e-03
+ 1.179138e-03 2.074242e-03
+ 1.201814e-03 3.054142e-03
+ 1.224490e-03 3.944635e-03
+ 1.247166e-03 4.495382e-03
+ 1.269841e-03 4.559755e-03
+ 1.292517e-03 4.137754e-03
+ 1.315193e-03 3.390312e-03
+ 1.337868e-03 2.578497e-03
+ 1.360544e-03 2.006292e-03
+ 1.383220e-03 1.906157e-03
+ 1.405896e-03 2.403259e-03
+ 1.428571e-03 3.443956e-03
+ 1.451247e-03 4.802942e-03
+ 1.473923e-03 6.161928e-03
+ 1.496599e-03 7.174015e-03
+ 1.519274e-03 7.560253e-03
+ 1.541950e-03 7.188320e-03
+ 1.564626e-03 6.108284e-03
+ 1.587302e-03 4.552603e-03
+ 1.609977e-03 2.871752e-03
+ 1.632653e-03 1.455545e-03
+ 1.655329e-03 6.258488e-04
+ 1.678005e-03 5.722046e-04
+ 1.700680e-03 1.301765e-03
+ 1.723356e-03 2.628565e-03
+ 1.746032e-03 4.241467e-03
+ 1.768707e-03 5.782843e-03
+ 1.791383e-03 6.916523e-03
+ 1.814059e-03 7.417202e-03
+ 1.836735e-03 7.216930e-03
+ 1.859410e-03 6.383657e-03
+ 1.882086e-03 5.110502e-03
+ 1.904762e-03 3.626347e-03
+ 1.927438e-03 2.163649e-03
+ 1.950113e-03 8.761883e-04
+ 1.972789e-03 -1.466274e-04
+ 1.995465e-03 -8.618832e-04
+ 2.018141e-03 -1.215935e-03
+ 2.040816e-03 -1.076460e-03
+ 2.063492e-03 -1.609325e-04
+ 2.086168e-03 1.966953e-03
+ 2.108844e-03 5.886555e-03
+ 2.131519e-03 1.222730e-02
+ 2.154195e-03 2.153277e-02
+ 2.176871e-03 3.413200e-02
+ 2.199546e-03 4.995704e-02
+ 2.222222e-03 6.848574e-02
+ 2.244898e-03 8.869529e-02
+ 2.267574e-03 1.091516e-01
+ 2.290249e-03 1.281595e-01
+ 2.312925e-03 1.440060e-01
+ 2.335601e-03 1.552176e-01
+ 2.358277e-03 1.608288e-01
+ 2.380952e-03 1.605606e-01
+ 2.403628e-03 1.549459e-01
+ 2.426304e-03 1.452577e-01
+ 2.448980e-03 1.333773e-01
+ 2.471655e-03 1.214719e-01
+ 2.494331e-03 1.117051e-01
+ 2.517007e-03 1.058042e-01
+ 2.539683e-03 1.047885e-01
+ 2.562358e-03 1.087260e-01
+ 2.585034e-03 1.166904e-01
+ 2.607710e-03 1.268721e-01
+ 2.630385e-03 1.368392e-01
+ 2.653061e-03 1.439202e-01
+ 2.675737e-03 1.456869e-01
+ 2.698413e-03 1.403689e-01
+ 2.721088e-03 1.271904e-01
+ 2.743764e-03 1.065516e-01
+ 2.766440e-03 7.997632e-02
+ 2.789116e-03 4.992485e-02
+ 2.811791e-03 1.931190e-02
+ 2.834467e-03 -8.994341e-03
+ 2.857143e-03 -3.277302e-02
+ 2.879819e-03 -5.094767e-02
+ 2.902494e-03 -6.402969e-02
+ 2.925170e-03 -7.425785e-02
+ 2.947846e-03 -8.562326e-02
+ 2.970522e-03 -1.035583e-01
+ 2.993197e-03 -1.345611e-01
+ 3.015873e-03 -1.855946e-01
+ 3.038549e-03 -2.634645e-01
+ 3.061224e-03 -3.742182e-01
+ 3.083900e-03 -5.226159e-01
+ 3.106576e-03 -7.117438e-01
+ 3.129252e-03 -9.427357e-01
+ 3.151927e-03 -1.214726e+00
+ 3.174603e-03 -1.524907e+00
+ 3.197279e-03 -1.868763e+00
+ 3.219955e-03 -2.240428e+00
+ 3.242630e-03 -2.633100e+00
+ 3.265306e-03 -3.039522e+00
+ 3.287982e-03 -3.452475e+00
+ 3.310658e-03 -3.865181e+00
+ 3.333333e-03 -4.271629e+00
+ 3.356009e-03 -4.666750e+00
+ 3.378685e-03 -5.046405e+00
+ 3.401361e-03 -5.407233e+00
+ 3.424036e-03 -5.746382e+00
+ 3.446712e-03 -6.061102e+00
+ 3.469388e-03 -6.348474e+00
+ 3.492063e-03 -6.605154e+00
+ 3.514739e-03 -6.827427e+00
+ 3.537415e-03 -7.011373e+00
+ 3.560091e-03 -7.153391e+00
+ 3.582766e-03 -7.250812e+00
+ 3.605442e-03 -7.302579e+00
+ 3.628118e-03 -7.309806e+00
+ 3.650794e-03 -7.276114e+00
+ 3.673469e-03 -7.207575e+00
+ 3.696145e-03 -7.112221e+00
+ 3.718821e-03 -6.999235e+00
+ 3.741497e-03 -6.877767e+00
+ 3.764172e-03 -6.755776e+00
+ 3.786848e-03 -6.638921e+00
+ 3.809524e-03 -6.529838e+00
+ 3.832200e-03 -6.427875e+00
+ 3.854875e-03 -6.329387e+00
+ 3.877551e-03 -6.228490e+00
+ 3.900227e-03 -6.118208e+00
+ 3.922902e-03 -5.991669e+00
+ 3.945578e-03 -5.843275e+00
+ 3.968254e-03 -5.669450e+00
+ 3.990930e-03 -5.469003e+00
+ 4.013605e-03 -5.242900e+00
+ 4.036281e-03 -4.993669e+00
+ 4.058957e-03 -4.724486e+00
+ 4.081633e-03 -4.438262e+00
+ 4.104308e-03 -4.136825e+00
+ 4.126984e-03 -3.820531e+00
+ 4.149660e-03 -3.488245e+00
+ 4.172336e-03 -3.137759e+00
+ 4.195011e-03 -2.766520e+00
+ 4.217687e-03 -2.372518e+00
+ 4.240363e-03 -1.955026e+00
+ 4.263039e-03 -1.515173e+00
+ 4.285714e-03 -1.056068e+00
+ 4.308390e-03 -5.825686e-01
+ 4.331066e-03 -1.007080e-01
+ 4.353741e-03 3.831196e-01
+ 4.376417e-03 8.629596e-01
+ 4.399093e-03 1.334016e+00
+ 4.421769e-03 1.793028e+00
+ 4.444444e-03 2.238361e+00
+ 4.467120e-03 2.669778e+00
+ 4.489796e-03 3.087938e+00
+ 4.512472e-03 3.493770e+00
+ 4.535147e-03 3.887908e+00
+ 4.557823e-03 4.270241e+00
+ 4.580499e-03 4.639653e+00
+ 4.603175e-03 4.994062e+00
+ 4.625850e-03 5.330615e+00
+ 4.648526e-03 5.646079e+00
+ 4.671202e-03 5.937231e+00
+ 4.693878e-03 6.201242e+00
+ 4.716553e-03 6.435975e+00
+ 4.739229e-03 6.640170e+00
+ 4.761905e-03 6.813444e+00
+ 4.784580e-03 6.956245e+00
+ 4.807256e-03 7.069709e+00
+ 4.829932e-03 7.155497e+00
+ 4.852608e-03 7.215621e+00
+ 4.875283e-03 7.252275e+00
+ 4.897959e-03 7.267699e+00
+ 4.920635e-03 7.264066e+00
+ 4.943311e-03 7.243363e+00
+ 4.965986e-03 7.207296e+00
+ 4.988662e-03 7.157253e+00
+ 5.011338e-03 7.094253e+00
+ 5.034014e-03 7.018998e+00
+ 5.056689e-03 6.931922e+00
+ 5.079365e-03 6.833307e+00
+ 5.102041e-03 6.723415e+00
+ 5.124717e-03 6.602587e+00
+ 5.147392e-03 6.471308e+00
+ 5.170068e-03 6.330214e+00
+ 5.192744e-03 6.180038e+00
+ 5.215420e-03 6.021516e+00
+ 5.238095e-03 5.855255e+00
+ 5.260771e-03 5.681663e+00
+ 5.283447e-03 5.500917e+00
+ 5.306122e-03 5.313052e+00
+ 5.328798e-03 5.118084e+00
+ 5.351474e-03 4.916264e+00
+ 5.374150e-03 4.708282e+00
+ 5.396825e-03 4.495436e+00
+ 5.419501e-03 4.279715e+00
+ 5.442177e-03 4.063715e+00
+ 5.464853e-03 3.850415e+00
+ 5.487528e-03 3.642812e+00
+ 5.510204e-03 3.443549e+00
+ 5.532880e-03 3.254471e+00
+ 5.555556e-03 3.076365e+00
+ 5.578231e-03 2.908759e+00
+ 5.600907e-03 2.750047e+00
+ 5.623583e-03 2.597641e+00
+ 5.646259e-03 2.448399e+00
+ 5.668934e-03 2.299072e+00
+ 5.691610e-03 2.146765e+00
+ 5.714286e-03 1.989316e+00
+ 5.736961e-03 1.825554e+00
+ 5.759637e-03 1.655388e+00
+ 5.782313e-03 1.479746e+00
+ 5.804989e-03 1.300392e+00
+ 5.827664e-03 1.119679e+00
+ 5.850340e-03 9.402752e-01
+ 5.873016e-03 7.649374e-01
+ 5.895692e-03 5.962980e-01
+ 5.918367e-03 4.367602e-01
+ 5.941043e-03 2.884448e-01
+ 5.963719e-03 1.531148e-01
+ 5.986395e-03 3.218293e-02
+ 6.009070e-03 -7.332802e-02
+ 6.031746e-03 -1.628280e-01
+ 6.054422e-03 -2.362454e-01
+ 6.077098e-03 -2.940202e-01
+ 6.099773e-03 -3.371572e-01
+ 6.122449e-03 -3.671730e-01
+ 6.145125e-03 -3.860164e-01
+ 6.167800e-03 -3.959012e-01
+ 6.190476e-03 -3.991413e-01
+ 6.213152e-03 -3.979075e-01
+ 6.235828e-03 -3.940701e-01
+ 6.258503e-03 -3.890240e-01
+ 6.281179e-03 -3.835809e-01
+ 6.303855e-03 -3.779554e-01
+ 6.326531e-03 -3.717864e-01
+ 6.349206e-03 -3.642261e-01
+ 6.371882e-03 -3.540909e-01
+ 6.394558e-03 -3.399503e-01
+ 6.417234e-03 -3.203237e-01
+ 6.439909e-03 -2.937734e-01
+ 6.462585e-03 -2.590477e-01
+ 6.485261e-03 -2.151346e-01
+ 6.507937e-03 -1.613724e-01
+ 6.530612e-03 -9.747148e-02
+ 6.553288e-03 -2.359986e-02
+ 6.575964e-03 5.962729e-02
+ 6.598639e-03 1.510763e-01
+ 6.621315e-03 2.491379e-01
+ 6.643991e-03 3.517520e-01
+ 6.666667e-03 4.564512e-01
+ 6.689342e-03 5.604637e-01
+ 6.712018e-03 6.608605e-01
+ 6.734694e-03 7.546985e-01
+ 6.757370e-03 8.392096e-01
+ 6.780045e-03 9.119511e-01
+ 6.802721e-03 9.709847e-01
+ 6.825397e-03 1.014984e+00
+ 6.848073e-03 1.043283e+00
+ 6.870748e-03 1.055914e+00
+ 6.893424e-03 1.053500e+00
+ 6.916100e-03 1.037153e+00
+ 6.938776e-03 1.008300e+00
+ 6.961451e-03 9.684885e-01
+ 6.984127e-03 9.192002e-01
+ 7.006803e-03 8.617079e-01
+ 7.029478e-03 7.969415e-01
+ 7.052154e-03 7.254767e-01
+ 7.074830e-03 6.475639e-01
+ 7.097506e-03 5.632317e-01
+ 7.120181e-03 4.724514e-01
+ 7.142857e-03 3.752947e-01
+ 7.165533e-03 2.721298e-01
+ 7.188209e-03 1.637471e-01
+ 7.210884e-03 5.146980e-02
+ 7.233560e-03 -6.283164e-02
+ 7.256236e-03 -1.767826e-01
+ 7.278912e-03 -2.876472e-01
+ 7.301587e-03 -3.924894e-01
+ 7.324263e-03 -4.884124e-01
+ 7.346939e-03 -5.728054e-01
+ 7.369615e-03 -6.435657e-01
+ 7.392290e-03 -6.993127e-01
+ 7.414966e-03 -7.395244e-01
+ 7.437642e-03 -7.645726e-01
+ 7.460317e-03 -7.757270e-01
+ 7.482993e-03 -7.750082e-01
+ 7.505669e-03 -7.649517e-01
+ 7.528345e-03 -7.483864e-01
+ 7.551020e-03 -7.280874e-01
+ 7.573696e-03 -7.065082e-01
+ 7.596372e-03 -6.855655e-01
+ 7.619048e-03 -6.664824e-01
+ 7.641723e-03 -6.497812e-01
+ 7.664399e-03 -6.353509e-01
+ 7.687075e-03 -6.226766e-01
+ 7.709751e-03 -6.110752e-01
+ 7.732426e-03 -5.999601e-01
+ 7.755102e-03 -5.890703e-01
+ 7.777778e-03 -5.786312e-01
+ 7.800454e-03 -5.693758e-01
+ 7.823129e-03 -5.624664e-01
+ 7.845805e-03 -5.592942e-01
+ 7.868481e-03 -5.612826e-01
+ 7.891156e-03 -5.696189e-01
+ 7.913832e-03 -5.851007e-01
+ 7.936508e-03 -6.080353e-01
+ 7.959184e-03 -6.382871e-01
+ 7.981859e-03 -6.753838e-01
+ 8.004535e-03 -7.187462e-01
+ 8.027211e-03 -7.678950e-01
+ 8.049887e-03 -8.226621e-01
+ 8.072562e-03 -8.832979e-01
+ 8.095238e-03 -9.504390e-01
+ 8.117914e-03 -1.025040e+00
+ 8.140590e-03 -1.108124e+00
+ 8.163265e-03 -1.200535e+00
+ 8.185941e-03 -1.302677e+00
+ 8.208617e-03 -1.414322e+00
+ 8.231293e-03 -1.534488e+00
+ 8.253968e-03 -1.661478e+00
+ 8.276644e-03 -1.792982e+00
+ 8.299320e-03 -1.926305e+00
+ 8.321995e-03 -2.058656e+00
+ 8.344671e-03 -2.187395e+00
+ 8.367347e-03 -2.310269e+00
+ 8.390023e-03 -2.425590e+00
+ 8.412698e-03 -2.532320e+00
+ 8.435374e-03 -2.630053e+00
+ 8.458050e-03 -2.718916e+00
+ 8.480726e-03 -2.799475e+00
+ 8.503401e-03 -2.872514e+00
+ 8.526077e-03 -2.938893e+00
+ 8.548753e-03 -2.999364e+00
+ 8.571429e-03 -3.054475e+00
+ 8.594104e-03 -3.104442e+00
+ 8.616780e-03 -3.149160e+00
+ 8.639456e-03 -3.188206e+00
+ 8.662132e-03 -3.220915e+00
+ 8.684807e-03 -3.246517e+00
+ 8.707483e-03 -3.264230e+00
+ 8.730159e-03 -3.273379e+00
+ 8.752834e-03 -3.273500e+00
+ 8.775510e-03 -3.264331e+00
+ 8.798186e-03 -3.245770e+00
+ 8.820862e-03 -3.217753e+00
+ 8.843537e-03 -3.180091e+00
+ 8.866213e-03 -3.132312e+00
+ 8.888889e-03 -3.073511e+00
+ 8.911565e-03 -3.002340e+00
+ 8.934240e-03 -2.917049e+00
+ 8.956916e-03 -2.815711e+00
+ 8.979592e-03 -2.696482e+00
+ 9.002268e-03 -2.557944e+00
+ 9.024943e-03 -2.399440e+00
+ 9.047619e-03 -2.221245e+00
+ 9.070295e-03 -2.024678e+00
+ 9.092971e-03 -1.811954e+00
+ 9.115646e-03 -1.585912e+00
+ 9.138322e-03 -1.349577e+00
+ 9.160998e-03 -1.105739e+00
+ 9.183673e-03 -8.565331e-01
+ 9.206349e-03 -6.032073e-01
+ 9.229025e-03 -3.460658e-01
+ 9.251701e-03 -8.466125e-02
+ 9.274376e-03 1.818287e-01
+ 9.297052e-03 4.541194e-01
+ 9.319728e-03 7.322931e-01
+ 9.342404e-03 1.015424e+00
+ 9.365079e-03 1.301326e+00
+ 9.387755e-03 1.586612e+00
+ 9.410431e-03 1.866946e+00
+ 9.433107e-03 2.137492e+00
+ 9.455782e-03 2.393492e+00
+ 9.478458e-03 2.630836e+00
+ 9.501134e-03 2.846475e+00
+ 9.523810e-03 3.038710e+00
+ 9.546485e-03 3.207203e+00
+ 9.569161e-03 3.352822e+00
+ 9.591837e-03 3.477266e+00
+ 9.614512e-03 3.582659e+00
+ 9.637188e-03 3.671082e+00
+ 9.659864e-03 3.744228e+00
+ 9.682540e-03 3.803161e+00
+ 9.705215e-03 3.848219e+00
+ 9.727891e-03 3.879057e+00
+ 9.750567e-03 3.894796e+00
+ 9.773243e-03 3.894228e+00
+ 9.795918e-03 3.876057e+00
+ 9.818594e-03 3.839082e+00
+ 9.841270e-03 3.782347e+00
+ 9.863946e-03 3.705311e+00
+ 9.886621e-03 3.607850e+00
+ 9.909297e-03 3.490334e+00
+ 9.931973e-03 3.353605e+00
+ 9.954649e-03 3.198931e+00
+ 9.977324e-03 3.027964e+00
+ 1.000000e-02 2.842655e+00
+ 1.002268e-02 2.645137e+00
+ 1.004535e-02 2.437649e+00
+ 1.006803e-02 2.222414e+00
+ 1.009070e-02 2.001615e+00
+ 1.011338e-02 1.777350e+00
+ 1.013605e-02 1.551694e+00
+ 1.015873e-02 1.326792e+00
+ 1.018141e-02 1.104959e+00
+ 1.020408e-02 8.887911e-01
+ 1.022676e-02 6.811810e-01
+ 1.024943e-02 4.853117e-01
+ 1.027211e-02 3.044987e-01
+ 1.029478e-02 1.419568e-01
+ 1.031746e-02 5.185604e-04
+ 1.034014e-02 -1.176846e-01
+ 1.036281e-02 -2.114654e-01
+ 1.038549e-02 -2.807522e-01
+ 1.040816e-02 -3.266037e-01
+ 1.043084e-02 -3.510690e-01
+ 1.045351e-02 -3.569913e-01
+ 1.047619e-02 -3.476357e-01
+ 1.049887e-02 -3.263819e-01
+ 1.052154e-02 -2.964342e-01
+ 1.054422e-02 -2.605855e-01
+ 1.056689e-02 -2.211928e-01
+ 1.058957e-02 -1.801336e-01
+ 1.061224e-02 -1.389456e-01
+ 1.063492e-02 -9.893775e-02
+ 1.065760e-02 -6.128669e-02
+ 1.068027e-02 -2.711535e-02
+ 1.070295e-02 2.564192e-03
+ 1.072562e-02 2.693295e-02
+ 1.074830e-02 4.548311e-02
+ 1.077098e-02 5.817890e-02
+ 1.079365e-02 6.549954e-02
+ 1.081633e-02 6.850004e-02
+ 1.083900e-02 6.868601e-02
+ 1.086168e-02 6.791353e-02
+ 1.088435e-02 6.814599e-02
+ 1.090703e-02 7.128596e-02
+ 1.092971e-02 7.901073e-02
+ 1.095238e-02 9.265780e-02
+ 1.097506e-02 1.132143e-01
+ 1.099773e-02 1.413488e-01
+ 1.102041e-02 1.775193e-01
+ 1.104308e-02 2.220261e-01
+ 1.106576e-02 2.751052e-01
+ 1.108844e-02 3.369176e-01
+ 1.111111e-02 4.075277e-01
+ 1.113379e-02 4.867852e-01
+ 1.115646e-02 5.742002e-01
+ 1.117914e-02 6.688678e-01
+ 1.120181e-02 7.693362e-01
+ 1.122449e-02 8.736241e-01
+ 1.124717e-02 9.792244e-01
+ 1.126984e-02 1.083266e+00
+ 1.129252e-02 1.182597e+00
+ 1.131519e-02 1.273992e+00
+ 1.133787e-02 1.354355e+00
+ 1.136054e-02 1.420827e+00
+ 1.138322e-02 1.470984e+00
+ 1.140590e-02 1.502899e+00
+ 1.142857e-02 1.515234e+00
+ 1.145125e-02 1.507276e+00
+ 1.147392e-02 1.478927e+00
+ 1.149660e-02 1.430665e+00
+ 1.151927e-02 1.363474e+00
+ 1.154195e-02 1.278691e+00
+ 1.156463e-02 1.177855e+00
+ 1.158730e-02 1.062520e+00
+ 1.160998e-02 9.340847e-01
+ 1.163265e-02 7.936406e-01
+ 1.165533e-02 6.418955e-01
+ 1.167800e-02 4.791570e-01
+ 1.170068e-02 3.054392e-01
+ 1.172336e-02 1.206136e-01
+ 1.174603e-02 -7.538795e-02
+ 1.176871e-02 -2.823257e-01
+ 1.179138e-02 -4.995239e-01
+ 1.181406e-02 -7.256985e-01
+ 1.183673e-02 -9.590113e-01
+ 1.185941e-02 -1.197131e+00
+ 1.188209e-02 -1.437421e+00
+ 1.190476e-02 -1.677192e+00
+ 1.192744e-02 -1.913878e+00
+ 1.195011e-02 -2.145274e+00
+ 1.197279e-02 -2.369599e+00
+ 1.199546e-02 -2.585521e+00
+ 1.201814e-02 -2.792058e+00
+ 1.204082e-02 -2.988456e+00
+ 1.206349e-02 -3.173997e+00
+ 1.208617e-02 -3.347862e+00
+ 1.210884e-02 -3.509009e+00
+ 1.213152e-02 -3.656166e+00
+ 1.215420e-02 -3.787844e+00
+ 1.217687e-02 -3.902442e+00
+ 1.219955e-02 -3.998394e+00
+ 1.222222e-02 -4.074275e+00
+ 1.224490e-02 -4.128939e+00
+ 1.226757e-02 -4.161562e+00
+ 1.229025e-02 -4.171679e+00
+ 1.231293e-02 -4.159180e+00
+ 1.233560e-02 -4.124261e+00
+ 1.235828e-02 -4.067395e+00
+ 1.238095e-02 -3.989296e+00
+ 1.240363e-02 -3.890913e+00
+ 1.242630e-02 -3.773396e+00
+ 1.244898e-02 -3.638098e+00
+ 1.247166e-02 -3.486532e+00
+ 1.249433e-02 -3.320339e+00
+ 1.251701e-02 -3.141217e+00
+ 1.253968e-02 -2.950802e+00
+ 1.256236e-02 -2.750616e+00
+ 1.258503e-02 -2.541976e+00
+ 1.260771e-02 -2.326001e+00
+ 1.263039e-02 -2.103585e+00
+ 1.265306e-02 -1.875540e+00
+ 1.267574e-02 -1.642642e+00
+ 1.269841e-02 -1.405799e+00
+ 1.272109e-02 -1.166142e+00
+ 1.274376e-02 -9.251010e-01
+ 1.276644e-02 -6.844103e-01
+ 1.278912e-02 -4.460299e-01
+ 1.281179e-02 -2.120590e-01
+ 1.283447e-02 1.543164e-02
+ 1.285714e-02 2.345324e-01
+ 1.287982e-02 4.436481e-01
+ 1.290249e-02 6.415379e-01
+ 1.292517e-02 8.273363e-01
+ 1.294785e-02 1.000507e+00
+ 1.297052e-02 1.160753e+00
+ 1.299320e-02 1.307895e+00
+ 1.301587e-02 1.441787e+00
+ 1.303855e-02 1.562272e+00
+ 1.306122e-02 1.669146e+00
+ 1.308390e-02 1.762186e+00
+ 1.310658e-02 1.841251e+00
+ 1.312925e-02 1.906303e+00
+ 1.315193e-02 1.957512e+00
+ 1.317460e-02 1.995267e+00
+ 1.319728e-02 2.020140e+00
+ 1.321995e-02 2.032882e+00
+ 1.324263e-02 2.034291e+00
+ 1.326531e-02 2.025172e+00
+ 1.328798e-02 2.006242e+00
+ 1.331066e-02 1.978097e+00
+ 1.333333e-02 1.941233e+00
+ 1.335601e-02 1.896061e+00
+ 1.337868e-02 1.842989e+00
+ 1.340136e-02 1.782492e+00
+ 1.342404e-02 1.715130e+00
+ 1.344671e-02 1.641616e+00
+ 1.346939e-02 1.562734e+00
+ 1.349206e-02 1.479349e+00
+ 1.351474e-02 1.392320e+00
+ 1.353741e-02 1.302438e+00
+ 1.356009e-02 1.210402e+00
+ 1.358277e-02 1.116822e+00
+ 1.360544e-02 1.022229e+00
+ 1.362812e-02 9.271896e-01
+ 1.365079e-02 8.323038e-01
+ 1.367347e-02 7.383120e-01
+ 1.369615e-02 6.460583e-01
+ 1.371882e-02 5.564904e-01
+ 1.374150e-02 4.705524e-01
+ 1.376417e-02 3.890920e-01
+ 1.378685e-02 3.127420e-01
+ 1.380952e-02 2.418816e-01
+ 1.383220e-02 1.765716e-01
+ 1.385488e-02 1.166511e-01
+ 1.387755e-02 6.184101e-02
+ 1.390023e-02 1.193047e-02
+ 1.392290e-02 -3.306270e-02
+ 1.394558e-02 -7.273436e-02
+ 1.396825e-02 -1.062083e-01
+ 1.399093e-02 -1.321685e-01
+ 1.401361e-02 -1.489663e-01
+ 1.403628e-02 -1.548314e-01
+ 1.405896e-02 -1.481116e-01
+ 1.408163e-02 -1.275301e-01
+ 1.410431e-02 -9.238958e-02
+ 1.412698e-02 -4.268289e-02
+ 1.414966e-02 2.088189e-02
+ 1.417234e-02 9.697080e-02
+ 1.419501e-02 1.838100e-01
+ 1.421769e-02 2.793717e-01
+ 1.424036e-02 3.816211e-01
+ 1.426304e-02 4.886627e-01
+ 1.428571e-02 5.988443e-01
+ 1.430839e-02 7.108104e-01
+ 1.433107e-02 8.234382e-01
+ 1.435374e-02 9.357762e-01
+ 1.437642e-02 1.046934e+00
+ 1.439909e-02 1.156000e+00
+ 1.442177e-02 1.261986e+00
+ 1.444444e-02 1.363842e+00
+ 1.446712e-02 1.460509e+00
+ 1.448980e-02 1.550943e+00
+ 1.451247e-02 1.634248e+00
+ 1.453515e-02 1.709765e+00
+ 1.455782e-02 1.777074e+00
+ 1.458050e-02 1.836090e+00
+ 1.460317e-02 1.887056e+00
+ 1.462585e-02 1.930515e+00
+ 1.464853e-02 1.967307e+00
+ 1.467120e-02 1.998500e+00
+ 1.469388e-02 2.025315e+00
+ 1.471655e-02 2.049054e+00
+ 1.473923e-02 2.070944e+00
+ 1.476190e-02 2.092005e+00
+ 1.478458e-02 2.112858e+00
+ 1.480726e-02 2.133604e+00
+ 1.482993e-02 2.153642e+00
+ 1.485261e-02 2.171624e+00
+ 1.487528e-02 2.185493e+00
+ 1.489796e-02 2.192574e+00
+ 1.492063e-02 2.189813e+00
+ 1.494331e-02 2.174063e+00
+ 1.496599e-02 2.142388e+00
+ 1.498866e-02 2.092384e+00
+ 1.501134e-02 2.022375e+00
+ 1.503401e-02 1.931537e+00
+ 1.505669e-02 1.819907e+00
+ 1.507937e-02 1.688215e+00
+ 1.510204e-02 1.537732e+00
+ 1.512472e-02 1.369983e+00
+ 1.514739e-02 1.186574e+00
+ 1.517007e-02 9.890306e-01
+ 1.519274e-02 7.787669e-01
+ 1.521542e-02 5.571198e-01
+ 1.523810e-02 3.255343e-01
+ 1.526077e-02 8.567691e-02
+ 1.528345e-02 -1.603317e-01
+ 1.530612e-02 -4.098952e-01
+ 1.532880e-02 -6.598699e-01
+ 1.535147e-02 -9.066975e-01
+ 1.537415e-02 -1.146609e+00
+ 1.539683e-02 -1.375834e+00
+ 1.541950e-02 -1.590922e+00
+ 1.544218e-02 -1.788944e+00
+ 1.546485e-02 -1.967697e+00
+ 1.548753e-02 -2.125772e+00
+ 1.551020e-02 -2.262565e+00
+ 1.553288e-02 -2.378250e+00
+ 1.555556e-02 -2.473615e+00
+ 1.557823e-02 -2.549976e+00
+ 1.560091e-02 -2.609038e+00
+ 1.562358e-02 -2.652783e+00
+ 1.564626e-02 -2.683357e+00
+ 1.566893e-02 -2.702991e+00
+ 1.569161e-02 -2.713884e+00
+ 1.571429e-02 -2.718101e+00
+ 1.573696e-02 -2.717443e+00
+ 1.575964e-02 -2.713315e+00
+ 1.578231e-02 -2.706635e+00
+ 1.580499e-02 -2.697759e+00
+ 1.582766e-02 -2.686461e+00
+ 1.585034e-02 -2.672013e+00
+ 1.587302e-02 -2.653288e+00
+ 1.589569e-02 -2.628919e+00
+ 1.591837e-02 -2.597519e+00
+ 1.594104e-02 -2.557808e+00
+ 1.596372e-02 -2.508810e+00
+ 1.598639e-02 -2.449880e+00
+ 1.600907e-02 -2.380750e+00
+ 1.603175e-02 -2.301486e+00
+ 1.605442e-02 -2.212397e+00
+ 1.607710e-02 -2.113960e+00
+ 1.609977e-02 -2.006725e+00
+ 1.612245e-02 -1.891265e+00
+ 1.614512e-02 -1.768177e+00
+ 1.616780e-02 -1.638064e+00
+ 1.619048e-02 -1.501622e+00
+ 1.621315e-02 -1.359637e+00
+ 1.623583e-02 -1.213070e+00
+ 1.625850e-02 -1.063070e+00
+ 1.628118e-02 -9.109533e-01
+ 1.630385e-02 -7.581997e-01
+ 1.632653e-02 -6.064153e-01
+ 1.634921e-02 -4.572701e-01
+ 1.637188e-02 -3.124881e-01
+ 1.639456e-02 -1.737678e-01
+ 1.641723e-02 -4.277587e-02
+ 1.643991e-02 7.891774e-02
+ 1.646259e-02 1.898611e-01
+ 1.648526e-02 2.887774e-01
+ 1.650794e-02 3.746331e-01
+ 1.653061e-02 4.466987e-01
+ 1.655329e-02 5.045950e-01
+ 1.657596e-02 5.483294e-01
+ 1.659864e-02 5.783021e-01
+ 1.662132e-02 5.952680e-01
+ 1.664399e-02 6.002784e-01
+ 1.666667e-02 5.945671e-01
+ 1.668934e-02 5.794609e-01
+ 1.671202e-02 5.562758e-01
+ 1.673469e-02 5.262530e-01
+ 1.675737e-02 4.904938e-01
+ 1.678005e-02 4.499674e-01
+ 1.680272e-02 4.055357e-01
+ 1.682540e-02 3.579998e-01
+ 1.684807e-02 3.081608e-01
+ 1.687075e-02 2.568448e-01
+ 1.689342e-02 2.049279e-01
+ 1.691610e-02 1.533186e-01
+ 1.693878e-02 1.028860e-01
+ 1.696145e-02 5.442023e-02
+ 1.698413e-02 8.511543e-03
+ 1.700680e-02 -3.449321e-02
+ 1.702948e-02 -7.455468e-02
+ 1.705215e-02 -1.119196e-01
+ 1.707483e-02 -1.471102e-01
+ 1.709751e-02 -1.808023e-01
+ 1.712018e-02 -2.137470e-01
+ 1.714286e-02 -2.465808e-01
+ 1.716553e-02 -2.797687e-01
+ 1.718821e-02 -3.134358e-01
+ 1.721088e-02 -3.473568e-01
+ 1.723356e-02 -3.809452e-01
+ 1.725624e-02 -4.133034e-01
+ 1.727891e-02 -4.433334e-01
+ 1.730159e-02 -4.698658e-01
+ 1.732426e-02 -4.918027e-01
+ 1.734694e-02 -5.082500e-01
+ 1.736961e-02 -5.185819e-01
+ 1.739229e-02 -5.224979e-01
+ 1.741497e-02 -5.199909e-01
+ 1.743764e-02 -5.112612e-01
+ 1.746032e-02 -4.966307e-01
+ 1.748299e-02 -4.763997e-01
+ 1.750567e-02 -4.507685e-01
+ 1.752834e-02 -4.197407e-01
+ 1.755102e-02 -3.831196e-01
+ 1.757370e-02 -3.405333e-01
+ 1.759637e-02 -2.915275e-01
+ 1.761905e-02 -2.356589e-01
+ 1.764172e-02 -1.726234e-01
+ 1.766440e-02 -1.023531e-01
+ 1.768707e-02 -2.506614e-02
+ 1.770975e-02 5.870461e-02
+ 1.773243e-02 1.481473e-01
+ 1.775510e-02 2.422607e-01
+ 1.777778e-02 3.399289e-01
+ 1.780045e-02 4.400504e-01
+ 1.782313e-02 5.416274e-01
+ 1.784580e-02 6.438231e-01
+ 1.786848e-02 7.460296e-01
+ 1.789116e-02 8.478713e-01
+ 1.791383e-02 9.491980e-01
+ 1.793651e-02 1.050053e+00
+ 1.795918e-02 1.150661e+00
+ 1.798186e-02 1.251333e+00
+ 1.800454e-02 1.352477e+00
+ 1.802721e-02 1.454469e+00
+ 1.804989e-02 1.557630e+00
+ 1.807256e-02 1.662122e+00
+ 1.809524e-02 1.767869e+00
+ 1.811791e-02 1.874478e+00
+ 1.814059e-02 1.981173e+00
+ 1.816327e-02 2.086784e+00
+ 1.818594e-02 2.189752e+00
+ 1.820862e-02 2.288182e+00
+ 1.823129e-02 2.379974e+00
+ 1.825397e-02 2.462922e+00
+ 1.827664e-02 2.534913e+00
+ 1.829932e-02 2.594032e+00
+ 1.832200e-02 2.638725e+00
+ 1.834467e-02 2.667865e+00
+ 1.836735e-02 2.680800e+00
+ 1.839002e-02 2.677370e+00
+ 1.841270e-02 2.657830e+00
+ 1.843537e-02 2.622800e+00
+ 1.845805e-02 2.573158e+00
+ 1.848073e-02 2.509958e+00
+ 1.850340e-02 2.434305e+00
+ 1.852608e-02 2.347319e+00
+ 1.854875e-02 2.250019e+00
+ 1.857143e-02 2.143335e+00
+ 1.859410e-02 2.028061e+00
+ 1.861678e-02 1.904883e+00
+ 1.863946e-02 1.774431e+00
+ 1.866213e-02 1.637338e+00
+ 1.868481e-02 1.494302e+00
+ 1.870748e-02 1.346172e+00
+ 1.873016e-02 1.193987e+00
+ 1.875283e-02 1.038988e+00
+ 1.877551e-02 8.825755e-01
+ 1.879819e-02 7.262206e-01
+ 1.882086e-02 5.713534e-01
+ 1.884354e-02 4.191828e-01
+ 1.886621e-02 2.706027e-01
+ 1.888889e-02 1.260746e-01
+ 1.891156e-02 -1.440167e-02
+ 1.893424e-02 -1.512194e-01
+ 1.895692e-02 -2.850473e-01
+ 1.897959e-02 -4.166222e-01
+ 1.900227e-02 -5.465519e-01
+ 1.902494e-02 -6.751120e-01
+ 1.904762e-02 -8.020949e-01
+ 1.907029e-02 -9.267998e-01
+ 1.909297e-02 -1.048043e+00
+ 1.911565e-02 -1.164322e+00
+ 1.913832e-02 -1.274014e+00
+ 1.916100e-02 -1.375598e+00
+ 1.918367e-02 -1.467812e+00
+ 1.920635e-02 -1.549841e+00
+ 1.922902e-02 -1.621299e+00
+ 1.925170e-02 -1.682235e+00
+ 1.927438e-02 -1.732975e+00
+ 1.929705e-02 -1.774035e+00
+ 1.931973e-02 -1.805931e+00
+ 1.934240e-02 -1.829095e+00
+ 1.936508e-02 -1.843833e+00
+ 1.938776e-02 -1.850309e+00
+ 1.941043e-02 -1.848621e+00
+ 1.943311e-02 -1.838855e+00
+ 1.945578e-02 -1.821163e+00
+ 1.947846e-02 -1.795814e+00
+ 1.950113e-02 -1.763198e+00
+ 1.952381e-02 -1.723770e+00
+ 1.954649e-02 -1.678054e+00
+ 1.956916e-02 -1.626545e+00
+ 1.959184e-02 -1.569704e+00
+ 1.961451e-02 -1.507938e+00
+ 1.963719e-02 -1.441637e+00
+ 1.965986e-02 -1.371242e+00
+ 1.968254e-02 -1.297266e+00
+ 1.970522e-02 -1.220348e+00
+ 1.972789e-02 -1.141237e+00
+ 1.975057e-02 -1.060753e+00
+ 1.977324e-02 -9.796929e-01
+ 1.979592e-02 -8.987582e-01
+ 1.981859e-02 -8.184528e-01
+ 1.984127e-02 -7.390559e-01
+ 1.986395e-02 -6.606281e-01
+ 1.988662e-02 -5.830657e-01
+ 1.990930e-02 -5.062544e-01
+ 1.993197e-02 -4.301512e-01
+ 1.995465e-02 -3.549492e-01
+ 1.997732e-02 -2.811313e-01
+ 2.000000e-02 -2.094984e-01
+ 2.002268e-02 -1.410949e-01
+ 2.004535e-02 -7.716179e-02
+ 2.006803e-02 -1.893640e-02
+ 2.009070e-02 3.243685e-02
+ 2.011338e-02 7.599592e-02
+ 2.013605e-02 1.110327e-01
+ 2.015873e-02 1.370788e-01
+ 2.018141e-02 1.538622e-01
+ 2.020408e-02 1.612008e-01
+ 2.022676e-02 1.589727e-01
+ 2.024943e-02 1.470780e-01
+ 2.027211e-02 1.254237e-01
+ 2.029478e-02 9.400964e-02
+ 2.031746e-02 5.297184e-02
+ 2.034014e-02 2.717972e-03
+ 2.036281e-02 -5.605459e-02
+ 2.038549e-02 -1.222944e-01
+ 2.040816e-02 -1.946390e-01
+ 2.043084e-02 -2.714932e-01
+ 2.045351e-02 -3.511512e-01
+ 2.047619e-02 -4.319108e-01
+ 2.049887e-02 -5.122018e-01
+ 2.052154e-02 -5.906832e-01
+ 2.054422e-02 -6.662786e-01
+ 2.056689e-02 -7.381582e-01
+ 2.058957e-02 -8.057570e-01
+ 2.061224e-02 -8.687067e-01
+ 2.063492e-02 -9.267676e-01
+ 2.065760e-02 -9.798396e-01
+ 2.068027e-02 -1.027912e+00
+ 2.070295e-02 -1.071095e+00
+ 2.072562e-02 -1.109576e+00
+ 2.074830e-02 -1.143669e+00
+ 2.077098e-02 -1.173731e+00
+ 2.079365e-02 -1.200185e+00
+ 2.081633e-02 -1.223398e+00
+ 2.083900e-02 -1.243654e+00
+ 2.086168e-02 -1.261100e+00
+ 2.088435e-02 -1.275684e+00
+ 2.090703e-02 -1.287192e+00
+ 2.092971e-02 -1.295235e+00
+ 2.095238e-02 -1.299319e+00
+ 2.097506e-02 -1.298894e+00
+ 2.099773e-02 -1.293383e+00
+ 2.102041e-02 -1.282228e+00
+ 2.104308e-02 -1.264876e+00
+ 2.106576e-02 -1.240754e+00
+ 2.108844e-02 -1.209229e+00
+ 2.111111e-02 -1.169586e+00
+ 2.113379e-02 -1.120999e+00
+ 2.115646e-02 -1.062555e+00
+ 2.117914e-02 -9.933078e-01
+ 2.120181e-02 -9.123552e-01
+ 2.122449e-02 -8.189464e-01
+ 2.124717e-02 -7.125700e-01
+ 2.126984e-02 -5.930722e-01
+ 2.129252e-02 -4.606748e-01
+ 2.131519e-02 -3.160501e-01
+ 2.133787e-02 -1.602423e-01
+ 2.136054e-02 5.310774e-03
+ 2.138322e-02 1.788747e-01
+ 2.140590e-02 3.584540e-01
+ 2.142857e-02 5.418670e-01
+ 2.145125e-02 7.267892e-01
+ 2.147392e-02 9.107959e-01
+ 2.149660e-02 1.091416e+00
+ 2.151927e-02 1.266210e+00
+ 2.154195e-02 1.432818e+00
+ 2.156463e-02 1.589073e+00
+ 2.158730e-02 1.733097e+00
+ 2.160998e-02 1.863388e+00
+ 2.163265e-02 1.978920e+00
+ 2.165533e-02 2.079148e+00
+ 2.167800e-02 2.164063e+00
+ 2.170068e-02 2.234105e+00
+ 2.172336e-02 2.290092e+00
+ 2.174603e-02 2.333100e+00
+ 2.176871e-02 2.364357e+00
+ 2.179138e-02 2.385060e+00
+ 2.181406e-02 2.396336e+00
+ 2.183673e-02 2.399125e+00
+ 2.185941e-02 2.394176e+00
+ 2.188209e-02 2.382013e+00
+ 2.190476e-02 2.362998e+00
+ 2.192744e-02 2.337363e+00
+ 2.195011e-02 2.305237e+00
+ 2.197279e-02 2.266710e+00
+ 2.199546e-02 2.221863e+00
+ 2.201814e-02 2.170744e+00
+ 2.204082e-02 2.113427e+00
+ 2.206349e-02 2.049962e+00
+ 2.208617e-02 1.980407e+00
+ 2.210884e-02 1.904815e+00
+ 2.213152e-02 1.823255e+00
+ 2.215420e-02 1.735822e+00
+ 2.217687e-02 1.642678e+00
+ 2.219955e-02 1.544058e+00
+ 2.222222e-02 1.440275e+00
+ 2.224490e-02 1.331720e+00
+ 2.226757e-02 1.218860e+00
+ 2.229025e-02 1.102180e+00
+ 2.231293e-02 9.821856e-01
+ 2.233560e-02 8.593583e-01
+ 2.235828e-02 7.341778e-01
+ 2.238095e-02 6.071413e-01
+ 2.240363e-02 4.788172e-01
+ 2.242630e-02 3.499103e-01
+ 2.244898e-02 2.213323e-01
+ 2.247166e-02 9.426713e-02
+ 2.249433e-02 -2.982974e-02
+ 2.251701e-02 -1.492417e-01
+ 2.253968e-02 -2.621090e-01
+ 2.256236e-02 -3.665757e-01
+ 2.258503e-02 -4.609501e-01
+ 2.260771e-02 -5.439126e-01
+ 2.263039e-02 -6.146729e-01
+ 2.265306e-02 -6.730592e-01
+ )
* Note: Truncated to 1000 points for display
.ENDS AUDIO_SOURCE

* Usage in KiCAD:
* 1. Add this file as a SPICE model library
* 2. In your symbol, set:
*    Spice_Primitive: X
*    Spice_Model: AUDIO_SOURCE
*    Spice_Lib_File: ${KIPRJMOD}/audio_source.lib
* 3. Pin 1 (out) -> your circuit signal node
* 4. Pin 2 (gnd) -> ground (0)
*
* IMPORTANT: The file audio_pwl.dat must be in the same
* directory as this .lib file for ngspice to find it.
*
* Netlist instantiation example:
* X1 signal_node 0 AUDIO_SOURCE

