*----------------------------------------------------------------------
* SPICE Model generated by Murata Manufacturing Co., Ltd.
* Copyright(C) Murata Manufacturing Co., Ltd.
* MURATA P/N : BLM21SP471SH1
* Property : Z@100MHz = 470[ohm]
*----------------------------------------------------------------------
* Applicable Conditions:
*   Frequency Range = 1MHz - 3GHz
*   Temperature = 25 degC
*   DC Bias Current = 0 A
*   Small Signal Operation
*----------------------------------------------------------------------
.SUBCKT BLM21SP471SH1 port1 port2
R1 port1 1 210.4
C2 1 2 1.150e-10
L1 port1 2 1.535e-6
R2 2 3 337.8
L2 2 3 4.285e-7
C1 port1 3 9.915e-13
R3 3 4 9.075
L3 3 4 8.901e-8
R4 4 port2 4.500e-2
.ENDS BLM21SP471SH1
*----------------------------------------------------------------------
