*----------------------------------------------------------------------
* SPICE Model generated by Murata Manufacturing Co., Ltd.
* Copyright(C) Murata Manufacturing Co., Ltd.
* MURATA P/N : BLM21BD221SH1
* Property : Z@100MHz = 220[ohm]
*----------------------------------------------------------------------
* Applicable Conditions:
*   Frequency Range = 1MHz - 3GHz
*   Temperature = 25 degC
*   DC Bias Current = 0 A
*   Small Signal Operation
*----------------------------------------------------------------------
.SUBCKT BLM21BD221SH1 port1 port2
R1 port1 1 89.79
C2 1 2 5.440e-11
L1 port1 2 1.914e-7
R2 2 3 391.3
L2 2 3 2.017e-7
C1 port1 3 1.133e-12
R3 3 4 35.68
L3 3 4 1.693e-8
R4 4 port2 1.500e-1
.ENDS BLM21BD221SH1
*----------------------------------------------------------------------
