*----------------------------------------------------------------------
* SPICE Model generated by Murata Manufacturing Co., Ltd.
* Copyright(C) Murata Manufacturing Co., Ltd.
* MURATA P/N : BLM21SP700BH1
* Property : Z@100MHz = 70[ohm]
*----------------------------------------------------------------------
* Applicable Conditions:
*   Frequency Range = 1MHz - 3GHz
*   Temperature = 25 degC
*   DC Bias Current = 0 A
*   Small Signal Operation
*----------------------------------------------------------------------
.SUBCKT BLM21SP700BH1 port1 port2
R1 port1 1 44.49
C2 1 2 5.747e-10
L1 port1 2 2.815e-7
R2 2 3 58.06
L2 2 3 5.649e-8
C1 port1 3 4.054e-13
R3 3 4 3.800e-1
L3 3 4 2.233e-6
R4 4 port2 7.000e-3
.ENDS BLM21SP700BH1
*----------------------------------------------------------------------
