*----------------------------------------------------------------------
* SPICE Model generated by Murata Manufacturing Co., Ltd.
* Copyright(C) Murata Manufacturing Co., Ltd.
* MURATA P/N : BLM21BD421SH1
* Property : Z@100MHz = 420[ohm]
*----------------------------------------------------------------------
* Applicable Conditions:
*   Frequency Range = 1MHz - 3GHz
*   Temperature = 25 degC
*   DC Bias Current = 0 A
*   Small Signal Operation
*----------------------------------------------------------------------
.SUBCKT BLM21BD421SH1 port1 port2
R1 port1 1 149.9
C2 1 2 2.879e-11
L1 port1 2 3.217e-7
R2 2 3 702.9
L2 2 3 3.687e-7
C1 port1 3 7.205e-13
R3 3 4 40.26
L3 3 4 1.449e-8
R4 4 port2 2.000e-1
.ENDS BLM21BD421SH1
*----------------------------------------------------------------------
