*----------------------------------------------------------------------
* SPICE Model generated by Murata Manufacturing Co., Ltd.
* Copyright(C) Murata Manufacturing Co., Ltd.
* MURATA P/N : BLM21AG102BH1
* Property : Z@100MHz = 1000[ohm]
*----------------------------------------------------------------------
* Applicable Conditions:
*   Frequency Range = 1MHz - 3GHz
*   Temperature = 25 degC
*   DC Bias Current = 0 A
*   Small Signal Operation
*----------------------------------------------------------------------
.SUBCKT BLM21AG102BH1 port1 port2
R1 port1 1 374.1
L1 port1 1 5.603e-6
C2 1 2 9.506e-11
R2 2 3 713.3
L2 1 3 1.341e-6
C1 port1 3 9.911e-13
R3 3 4 23.43
L3 3 4 3.421e-7
R4 4 port2 2.000e-1
.ENDS BLM21AG102BH1
*----------------------------------------------------------------------
