*----------------------------------------------------------------------
* SPICE Model generated by Murata Manufacturing Co., Ltd.
* Copyright(C) Murata Manufacturing Co., Ltd.
* MURATA P/N : BLM21SP331SH1
* Property : Z@100MHz = 330[ohm]
*----------------------------------------------------------------------
* Applicable Conditions:
*   Frequency Range = 1MHz - 3GHz
*   Temperature = 25 degC
*   DC Bias Current = 0 A
*   Small Signal Operation
*----------------------------------------------------------------------
.SUBCKT BLM21SP331SH1 port1 port2
R1 port1 1 179.0
C2 1 2 1.370e-10
L1 port1 2 1.320e-6
R2 2 3 250.1
L2 2 3 3.060e-7
C1 port1 3 7.770e-13
R3 3 4 11.89
L3 3 4 5.680e-8
R4 4 port2 3.600e-2
.ENDS BLM21SP331SH1
*----------------------------------------------------------------------
