*----------------------------------------------------------------------
* SPICE Model generated by Murata Manufacturing Co., Ltd.
* Copyright(C) Murata Manufacturing Co., Ltd.
* MURATA P/N : BLM21BD152SH1
* Property : Z@100MHz = 1500[ohm]
*----------------------------------------------------------------------
* Applicable Conditions:
*   Frequency Range = 1MHz - 3GHz
*   Temperature = 25 degC
*   DC Bias Current = 0 A
*   Small Signal Operation
*----------------------------------------------------------------------
.SUBCKT BLM21BD152SH1 port1 port2
R1 port1 1 350.8
C2 1 2 9.622e-12
L1 port1 2 7.128e-7
R2 2 3 1790
L2 2 3 1.130e-6
C1 port1 3 6.905e-13
R3 3 4 25.69
L3 3 4 2.794e-8
R4 4 port2 3.300e-1
.ENDS BLM21BD152SH1
*----------------------------------------------------------------------
