*----------------------------------------------------------------------
* SPICE Model generated by Murata Manufacturing Co., Ltd.
* Copyright(C) Murata Manufacturing Co., Ltd.
* MURATA P/N : BLM21BD751SH1
* Property : Z@100MHz = 750[ohm]
*----------------------------------------------------------------------
* Applicable Conditions:
*   Frequency Range = 1MHz - 3GHz
*   Temperature = 25 degC
*   DC Bias Current = 0 A
*   Small Signal Operation
*----------------------------------------------------------------------
.SUBCKT BLM21BD751SH1 port1 port2
R1 port1 1 218.0
C2 1 2 1.692e-11
L1 port1 2 4.242e-7
R2 2 3 1224
L2 2 3 6.036e-7
C1 port1 3 7.333e-13
R3 3 4 32.09
L3 3 4 2.033e-8
R4 4 port2 2.400e-1
.ENDS BLM21BD751SH1
*----------------------------------------------------------------------
