*----------------------------------------------------------------------
* SPICE Model generated by Murata Manufacturing Co., Ltd.
* Copyright(C) Murata Manufacturing Co., Ltd.
* MURATA P/N : BLM21AG471BH1
* Property : Z@100MHz = 470[ohm]
*----------------------------------------------------------------------
* Applicable Conditions:
*   Frequency Range = 1MHz - 3GHz
*   Temperature = 25 degC
*   DC Bias Current = 0 A
*   Small Signal Operation
*----------------------------------------------------------------------
.SUBCKT BLM21AG471BH1 port1 port2
R1 port1 1 158.7
L1 port1 1 2.583e-6
C2 1 2 1.987e-10
R2 2 3 363.0
L2 1 3 6.666e-7
C1 port1 3 1.001e-12
R3 3 4 29.36
L3 3 4 1.375e-7
R4 4 port2 1.500e-1
.ENDS BLM21AG471BH1
*----------------------------------------------------------------------
