*----------------------------------------------------------------------
* SPICE Model generated by Murata Manufacturing Co., Ltd.
* Copyright(C) Murata Manufacturing Co., Ltd.
* MURATA P/N : BLM21BB331SH1
* Property : Z@100MHz = 330[ohm]
*----------------------------------------------------------------------
* Applicable Conditions:
*   Frequency Range = 1MHz - 3GHz
*   Temperature = 25 degC
*   DC Bias Current = 0 A
*   Small Signal Operation
*----------------------------------------------------------------------
.SUBCKT BLM21BB331SH1 port1 port2
R1 port1 1 932.4
C2 1 2 1.105e-12
L1 port1 2 4.209e-7
R2 2 3 1.159
L2 2 3 2.251e-8
C1 port1 3 5.438e-13
R3 3 4 29.27
L3 3 4 2.556e-9
R4 4 port2 2.500e-1
.ENDS BLM21BB331SH1
*----------------------------------------------------------------------
