*----------------------------------------------------------------------
* SPICE Model generated by Murata Manufacturing Co., Ltd.
* Copyright(C) Murata Manufacturing Co., Ltd.
* MURATA P/N : BLM21BD121SH1
* Property : Z@100MHz = 120[ohm]
*----------------------------------------------------------------------
* Applicable Conditions:
*   Frequency Range = 1MHz - 3GHz
*   Temperature = 25 degC
*   DC Bias Current = 0 A
*   Small Signal Operation
*----------------------------------------------------------------------
.SUBCKT BLM21BD121SH1 port1 port2
R1 port1 1 54.18
C2 1 2 9.267e-11
L1 port1 2 1.114e-7
R2 2 3 241.8
L2 2 3 1.314e-7
C1 port1 3 8.402e-13
R3 3 4 34.25
L3 3 4 4.638e-9
R4 4 port2 1.000e-1
.ENDS BLM21BD121SH1
*----------------------------------------------------------------------
