*----------------------------------------------------------------------
* SPICE Model generated by Murata Manufacturing Co., Ltd.
* Copyright(C) Murata Manufacturing Co., Ltd.
* MURATA P/N : BLM21SN300SH1
* Property : Z@100MHz = 30[ohm]
*----------------------------------------------------------------------
* Applicable Conditions:
*   Frequency Range = 1MHz - 3GHz
*   Temperature = 25 degC
*   DC Bias Current = 0 A
*   Small Signal Operation
*----------------------------------------------------------------------
.SUBCKT BLM21SN300SH1 port1 port2
R1 port1 1 1.646e-3
L1 port1 1 2.777e-5
C1 port1 2 3.466e-13
R2 1 2 27.30
L2 1 2 1.462e-7
R3 2 3 13.52
L3 2 3 1.032e-8
R4 3 port2 2.500e-3
.ENDS BLM21SN300SH1
*----------------------------------------------------------------------
