*----------------------------------------------------------------------
* SPICE Model generated by Murata Manufacturing Co., Ltd.
* Copyright(C) Murata Manufacturing Co., Ltd.
* MURATA P/N : BLM21HE472BH1
* Property : Z@100MHz = 4700[ohm]
*----------------------------------------------------------------------
* Applicable Conditions:
*   Frequency Range = 1MHz - 3GHz
*   Temperature = 25 degC
*   DC Bias Current = 0 A
*   Small Signal Operation
*----------------------------------------------------------------------
.SUBCKT BLM21HE472BH1 port1 port2
R1 port1 1 3390
C2 1 2 1.890e-12
L1 port1 2 1.030e-5
R2 2 3 2130
L2 2 3 1.410e-6
C1 port1 3 2.310e-13
R3 3 4 10.60
L3 3 4 3.600e-7
R4 4 port2 3.400e-1
.ENDS BLM21HE472BH1
*----------------------------------------------------------------------
