*----------------------------------------------------------------------
* SPICE Model generated by Murata Manufacturing Co., Ltd.
* Copyright(C) Murata Manufacturing Co., Ltd.
* MURATA P/N : BLM21AG121BH1
* Property : Z@100MHz = 120[ohm]
*----------------------------------------------------------------------
* Applicable Conditions:
*   Frequency Range = 1MHz - 3GHz
*   Temperature = 25 degC
*   DC Bias Current = 0 A
*   Small Signal Operation
*----------------------------------------------------------------------
.SUBCKT BLM21AG121BH1 port1 port2
R1 port1 1 37.90
L1 port1 1 6.076e-7
C2 1 2 7.487e-10
R2 2 3 83.70
L2 1 3 1.364e-7
C1 port1 3 8.319e-13
R3 3 4 30.48
L3 3 4 1.378e-7
R4 4 port2 7.000e-2
.ENDS BLM21AG121BH1
*----------------------------------------------------------------------
