*----------------------------------------------------------------------
* SPICE Model generated by Murata Manufacturing Co., Ltd.
* Copyright(C) Murata Manufacturing Co., Ltd.
* MURATA P/N : BLM21HE122SH1
* Property : Z@100MHz = 1200[ohm]
*----------------------------------------------------------------------
* Applicable Conditions:
*   Frequency Range = 1MHz - 3GHz
*   Temperature = 25 degC
*   DC Bias Current = 0 A
*   Small Signal Operation
*----------------------------------------------------------------------
.SUBCKT BLM21HE122SH1 port1 port2
R1 port1 1 672.0
C2 1 2 8.580e-12
L1 port1 2 2.320e-6
R2 2 3 796.0
L2 2 3 7.480e-7
C1 port1 3 3.540e-13
R3 3 4 21.10
L3 3 4 6.620e-9
R4 4 port2 9.000e-2
.ENDS BLM21HE122SH1
*----------------------------------------------------------------------
