*----------------------------------------------------------------------
* SPICE Model generated by Murata Manufacturing Co., Ltd.
* Copyright(C) Murata Manufacturing Co., Ltd.
* MURATA P/N : BLM21BD331SH1
* Property : Z@100MHz = 330[ohm]
*----------------------------------------------------------------------
* Applicable Conditions:
*   Frequency Range = 1MHz - 3GHz
*   Temperature = 25 degC
*   DC Bias Current = 0 A
*   Small Signal Operation
*----------------------------------------------------------------------
.SUBCKT BLM21BD331SH1 port1 port2
R1 port1 1 122.7
C2 1 2 3.579e-11
L1 port1 2 2.681e-7
R2 2 3 623.9
L2 2 3 3.379e-7
C1 port1 3 6.924e-13
R3 3 4 38.85
L3 3 4 7.258e-9
R4 4 port2 1.900e-1
.ENDS BLM21BD331SH1
*----------------------------------------------------------------------
