*----------------------------------------------------------------------
* SPICE Model generated by Murata Manufacturing Co., Ltd.
* Copyright(C) Murata Manufacturing Co., Ltd.
* MURATA P/N : BLM21SP111SH1
* Property : Z@100MHz = 110[ohm]
*----------------------------------------------------------------------
* Applicable Conditions:
*   Frequency Range = 1MHz - 3GHz
*   Temperature = 25 degC
*   DC Bias Current = 0 A
*   Small Signal Operation
*----------------------------------------------------------------------
.SUBCKT BLM21SP111SH1 port1 port2
R1 port1 1 73.95
C2 1 2 2.980e-10
L1 port1 2 4.330e-7
R2 2 3 93.70
L2 2 3 8.450e-8
C1 port1 3 9.100e-13
R3 3 4 7.736
L3 3 4 2.090e-8
R4 4 port2 1.100e-2
.ENDS BLM21SP111SH1
*----------------------------------------------------------------------
