*----------------------------------------------------------------------
* SPICE Model generated by Murata Manufacturing Co., Ltd.
* Copyright(C) Murata Manufacturing Co., Ltd.
* MURATA P/N : BLM21HE802SH1
* Property : Z@100MHz = 8000[ohm]
*----------------------------------------------------------------------
* Applicable Conditions:
*   Frequency Range = 1MHz - 3GHz
*   Temperature = 25 degC
*   DC Bias Current = 0 A
*   Small Signal Operation
*----------------------------------------------------------------------
.SUBCKT BLM21HE802SH1 port1 port2
R1 port1 1 6040
C2 1 2 1.050e-12
L1 port1 2 1.920e-5
R2 2 3 5350
L2 2 3 3.180e-6
C1 port1 3 2.040e-13
R3 3 4 4.740
L3 3 4 6.180e-7
R4 4 port2 5.900e-1
.ENDS BLM21HE802SH1
*----------------------------------------------------------------------
