*----------------------------------------------------------------------
* SPICE Model generated by Murata Manufacturing Co., Ltd.
* Copyright(C) Murata Manufacturing Co., Ltd.
* MURATA P/N : BLM21AG151BH1
* Property : Z@100MHz = 150[ohm]
*----------------------------------------------------------------------
* Applicable Conditions:
*   Frequency Range = 1MHz - 3GHz
*   Temperature = 25 degC
*   DC Bias Current = 0 A
*   Small Signal Operation
*----------------------------------------------------------------------
.SUBCKT BLM21AG151BH1 port1 port2
R1 port1 1 44.76
L1 port1 1 7.172e-7
C2 1 2 6.927e-10
R2 2 3 98.29
L2 1 3 1.830e-7
C1 port1 3 1.173e-12
R3 3 4 24.96
L3 3 4 1.238e-7
R4 4 port2 7.000e-2
.ENDS BLM21AG151BH1
*----------------------------------------------------------------------
