*----------------------------------------------------------------------
* SPICE Model generated by Murata Manufacturing Co., Ltd.
* Copyright(C) Murata Manufacturing Co., Ltd.
* MURATA P/N : BLM21BD151SH1
* Property : Z@100MHz = 150[ohm]
*----------------------------------------------------------------------
* Applicable Conditions:
*   Frequency Range = 1MHz - 3GHz
*   Temperature = 25 degC
*   DC Bias Current = 0 A
*   Small Signal Operation
*----------------------------------------------------------------------
.SUBCKT BLM21BD151SH1 port1 port2
R1 port1 1 68.90
C2 1 2 7.207e-11
L1 port1 2 1.278e-7
R2 2 3 260.5
L2 2 3 1.297e-7
C1 port1 3 8.826e-13
R3 3 4 34.22
L3 3 4 5.661e-9
R4 4 port2 1.300e-1
.ENDS BLM21BD151SH1
*----------------------------------------------------------------------
