*----------------------------------------------------------------------
* SPICE Model generated by Murata Manufacturing Co., Ltd.
* Copyright(C) Murata Manufacturing Co., Ltd.
* MURATA P/N : BLM21PG331BH1
* Property : Z@100MHz = 330[ohm]
*----------------------------------------------------------------------
* Applicable Conditions:
*   Frequency Range = 1MHz - 3GHz
*   Temperature = 25 degC
*   DC Bias Current = 0 A
*   Small Signal Operation
*----------------------------------------------------------------------
.SUBCKT BLM21PG331BH1 port1 port2
R1 port1 1 118.1
L1 port1 1 1.709e-6
C1 port1 2 8.652e-13
R2 1 2 266.4
L2 1 2 5.359e-7
R3 2 3 24.15
L3 2 3 3.398e-9
R4 3 port2 5.000e-2
.ENDS BLM21PG331BH1
*----------------------------------------------------------------------
