*----------------------------------------------------------------------
* SPICE Model generated by Murata Manufacturing Co., Ltd.
* Copyright(C) Murata Manufacturing Co., Ltd.
* MURATA P/N : BLM21HE601BH1
* Property : Z@100MHz = 600[ohm]
*----------------------------------------------------------------------
* Applicable Conditions:
*   Frequency Range = 1MHz - 3GHz
*   Temperature = 25 degC
*   DC Bias Current = 0 A
*   Small Signal Operation
*----------------------------------------------------------------------
.SUBCKT BLM21HE601BH1 port1 port2
R1 port1 1 412.0
C2 1 2 1.530e-11
L1 port1 2 1.330e-6
R2 2 3 411.0
L2 2 3 2.490e-7
C1 port1 3 3.570e-13
R3 3 4 11.70
L3 3 4 2.190e-8
R4 4 port2 6.750e-2
.ENDS BLM21HE601BH1
*----------------------------------------------------------------------
