*----------------------------------------------------------------------
* SPICE Model generated by Murata Manufacturing Co., Ltd.
* Copyright(C) Murata Manufacturing Co., Ltd.
* MURATA P/N : BLM21SP181BH1
* Property : Z@100MHz = 180[ohm]
*----------------------------------------------------------------------
* Applicable Conditions:
*   Frequency Range = 1MHz - 3GHz
*   Temperature = 25 degC
*   DC Bias Current = 0 A
*   Small Signal Operation
*----------------------------------------------------------------------
.SUBCKT BLM21SP181BH1 port1 port2
R1 port1 1 90.62
C2 1 2 2.820e-10
L1 port1 2 6.160e-7
R2 2 3 144.6
L2 2 3 1.500e-7
C1 port1 3 1.080e-12
R3 3 4 7.683
L3 3 4 2.830e-8
R4 4 port2 1.700e-2
.ENDS BLM21SP181BH1
*----------------------------------------------------------------------
