*----------------------------------------------------------------------
* SPICE Model generated by Murata Manufacturing Co., Ltd.
* Copyright(C) Murata Manufacturing Co., Ltd.
* MURATA P/N : BLM21BD471SH1
* Property : Z@100MHz = 470[ohm]
*----------------------------------------------------------------------
* Applicable Conditions:
*   Frequency Range = 1MHz - 3GHz
*   Temperature = 25 degC
*   DC Bias Current = 0 A
*   Small Signal Operation
*----------------------------------------------------------------------
.SUBCKT BLM21BD471SH1 port1 port2
R1 port1 1 155.8
C2 1 2 2.585e-11
L1 port1 2 3.341e-7
R2 2 3 841.6
L2 2 3 4.212e-7
C1 port1 3 7.469e-13
R3 3 4 38.03
L3 3 4 1.430e-8
R4 4 port2 2.200e-1
.ENDS BLM21BD471SH1
*----------------------------------------------------------------------
