*----------------------------------------------------------------------
* SPICE Model generated by Murata Manufacturing Co., Ltd.
* Copyright(C) Murata Manufacturing Co., Ltd.
* MURATA P/N : BLM21SP601BH1
* Property : Z@100MHz = 600[ohm]
*----------------------------------------------------------------------
* Applicable Conditions:
*   Frequency Range = 1MHz - 3GHz
*   Temperature = 25 degC
*   DC Bias Current = 0 A
*   Small Signal Operation
*----------------------------------------------------------------------
.SUBCKT BLM21SP601BH1 port1 port2
R1 port1 1 289.0
C2 1 2 8.177e-11
L1 port1 2 2.149e-6
R2 2 3 473.0
L2 2 3 5.645e-7
C1 port1 3 1.067e-12
R3 3 4 9.597
L3 3 4 1.148e-7
R4 4 port2 5.100e-2
.ENDS BLM21SP601BH1
*----------------------------------------------------------------------
