*----------------------------------------------------------------------
* SPICE Model generated by Murata Manufacturing Co., Ltd.
* Copyright(C) Murata Manufacturing Co., Ltd.
* MURATA P/N : BLM21BB151SH1
* Property : Z@100MHz = 150[ohm]
*----------------------------------------------------------------------
* Applicable Conditions:
*   Frequency Range = 1MHz - 3GHz
*   Temperature = 25 degC
*   DC Bias Current = 0 A
*   Small Signal Operation
*----------------------------------------------------------------------
.SUBCKT BLM21BB151SH1 port1 port2
R1 port1 1 365.6
C2 1 2 2.944e-12
L1 port1 2 1.728e-7
R2 2 3 4.649e-1
L2 2 3 7.429e-9
C1 port1 3 9.108e-13
R3 3 4 34.12
L3 3 4 1.898e-9
R4 4 port2 1.500e-1
.ENDS BLM21BB151SH1
*----------------------------------------------------------------------
