*----------------------------------------------------------------------
* SPICE Model generated by Murata Manufacturing Co., Ltd.
* Copyright(C) Murata Manufacturing Co., Ltd.
* MURATA P/N : BLM21PG300SH1
* Property : Z@100MHz = 30[ohm]
*----------------------------------------------------------------------
* Applicable Conditions:
*   Frequency Range = 1MHz - 3GHz
*   Temperature = 25 degC
*   DC Bias Current = 0 A
*   Small Signal Operation
*----------------------------------------------------------------------
.SUBCKT BLM21PG300SH1 port1 port2
R1 port1 1 29.36
L1 port1 1 5.681e-8
C1 port1 2 5.571e-13
R2 1 2 12.85
L2 1 2 1.614e-7
R3 2 3 1.447e+5
L3 2 3 8.743e-10
R4 3 port2 1.000e-2
.ENDS BLM21PG300SH1
*----------------------------------------------------------------------
