*----------------------------------------------------------------------
* SPICE Model generated by Murata Manufacturing Co., Ltd.
* Copyright(C) Murata Manufacturing Co., Ltd.
* MURATA P/N : BLM21PG121SH1
* Property : Z@100MHz = 120[ohm]
*----------------------------------------------------------------------
* Applicable Conditions:
*   Frequency Range = 1MHz - 3GHz
*   Temperature = 25 degC
*   DC Bias Current = 0 A
*   Small Signal Operation
*----------------------------------------------------------------------
.SUBCKT BLM21PG121SH1 port1 port2
R1 port1 1 34.72
L1 port1 1 5.256e-7
C1 port1 2 1.004e-12
R2 1 2 86.69
L2 1 2 2.251e-7
R3 2 3 30.61
L3 2 3 2.300e-8
R4 3 port2 2.200e-2
.ENDS BLM21PG121SH1
*----------------------------------------------------------------------
