*----------------------------------------------------------------------
* SPICE Model generated by Murata Manufacturing Co., Ltd.
* Copyright(C) Murata Manufacturing Co., Ltd.
* MURATA P/N : BLM21BD102SH1
* Property : Z@100MHz = 1000[ohm]
*----------------------------------------------------------------------
* Applicable Conditions:
*   Frequency Range = 1MHz - 3GHz
*   Temperature = 25 degC
*   DC Bias Current = 0 A
*   Small Signal Operation
*----------------------------------------------------------------------
.SUBCKT BLM21BD102SH1 port1 port2
R1 port1 1 256.2
C2 1 2 1.353e-11
L1 port1 2 5.832e-7
R2 2 3 1467
L2 2 3 8.730e-7
C1 port1 3 7.036e-13
R3 3 4 25.54
L3 3 4 2.205e-8
R4 4 port2 2.500e-1
.ENDS BLM21BD102SH1
*----------------------------------------------------------------------
