*----------------------------------------------------------------------
* SPICE Model generated by Murata Manufacturing Co., Ltd.
* Copyright(C) Murata Manufacturing Co., Ltd.
* MURATA P/N : BLM21BB600SH1
* Property : Z@100MHz = 60[ohm]
*----------------------------------------------------------------------
* Applicable Conditions:
*   Frequency Range = 1MHz - 3GHz
*   Temperature = 25 degC
*   DC Bias Current = 0 A
*   Small Signal Operation
*----------------------------------------------------------------------
.SUBCKT BLM21BB600SH1 port1 port2
R1 port1 1 175.0
C2 1 2 7.219e-12
L1 port1 2 8.025e-8
R2 2 3 1.330e-1
L2 2 3 5.707e-8
C1 port1 3 7.021e-13
R3 3 4 2015
L3 3 4 1.029e-9
R4 4 port2 9.000e-2
.ENDS BLM21BB600SH1
*----------------------------------------------------------------------
