*----------------------------------------------------------------------
* SPICE Model generated by Murata Manufacturing Co., Ltd.
* Copyright(C) Murata Manufacturing Co., Ltd.
* MURATA P/N : BLM21BB221SH1
* Property : Z@100MHz = 220[ohm]
*----------------------------------------------------------------------
* Applicable Conditions:
*   Frequency Range = 1MHz - 3GHz
*   Temperature = 25 degC
*   DC Bias Current = 0 A
*   Small Signal Operation
*----------------------------------------------------------------------
.SUBCKT BLM21BB221SH1 port1 port2
R1 port1 1 507.0
C2 1 2 2.043e-12
L1 port1 2 2.516e-7
R2 2 3 4.812e-1
L2 2 3 1.731e-8
C1 port1 3 9.898e-13
R3 3 4 25.84
L3 3 4 2.493e-9
R4 4 port2 2.000e-1
.ENDS BLM21BB221SH1
*----------------------------------------------------------------------
