*----------------------------------------------------------------------
* SPICE Model generated by Murata Manufacturing Co., Ltd.
* Copyright(C) Murata Manufacturing Co., Ltd.
* MURATA P/N : BLM21AG331SH1
* Property : Z@100MHz = 330[ohm]
*----------------------------------------------------------------------
* Applicable Conditions:
*   Frequency Range = 1MHz - 3GHz
*   Temperature = 25 degC
*   DC Bias Current = 0 A
*   Small Signal Operation
*----------------------------------------------------------------------
.SUBCKT BLM21AG331SH1 port1 port2
R1 port1 1 112.9
L1 port1 1 1.758e-6
C2 1 2 2.732e-10
R2 2 3 256.0
L2 1 3 4.626e-7
C1 port1 3 1.112e-12
R3 3 4 26.75
L3 3 4 1.262e-7
R4 4 port2 1.300e-1
.ENDS BLM21AG331SH1
*----------------------------------------------------------------------
