*----------------------------------------------------------------------
* SPICE Model generated by Murata Manufacturing Co., Ltd.
* Copyright(C) Murata Manufacturing Co., Ltd.
* MURATA P/N : BLM21BD222TH1
* Property : Z@100MHz = 2200[ohm]
*----------------------------------------------------------------------
* Applicable Conditions:
*   Frequency Range = 1MHz - 3GHz
*   Temperature = 25 degC
*   DC Bias Current = 0 A
*   Small Signal Operation
*----------------------------------------------------------------------
.SUBCKT BLM21BD222TH1 port1 port2
R1 port1 1 1742
C2 1 2 2.960e-12
L1 port1 2 2.243e-6
R2 2 3 284.9
L2 2 3 3.708e-7
C1 port1 3 9.342e-13
R3 3 4 22.30
L3 3 4 3.911e-8
R4 4 port2 4.200e-1
.ENDS BLM21BD222TH1
*----------------------------------------------------------------------
