*----------------------------------------------------------------------
* SPICE Model generated by Murata Manufacturing Co., Ltd.
* Copyright(C) Murata Manufacturing Co., Ltd.
* MURATA P/N : BLM21BD222SH1
* Property : Z@100MHz = 2250[ohm]
*----------------------------------------------------------------------
* Applicable Conditions:
*   Frequency Range = 1MHz - 3GHz
*   Temperature = 25 degC
*   DC Bias Current = 0 A
*   Small Signal Operation
*----------------------------------------------------------------------
.SUBCKT BLM21BD222SH1 port1 port2
R1 port1 1 2175
C2 1 2 2.614e-12
L1 port1 2 2.417e-6
R2 2 3 1.168
L2 2 3 7.611e-8
C1 port1 3 1.224e-12
R3 3 4 21.24
L3 3 4 1.966e-8
R4 4 port2 4.800e-1
.ENDS BLM21BD222SH1
*----------------------------------------------------------------------
