*----------------------------------------------------------------------
* SPICE Model generated by Murata Manufacturing Co., Ltd.
* Copyright(C) Murata Manufacturing Co., Ltd.
* MURATA P/N : BLM21AG221BH1
* Property : Z@100MHz = 220[ohm]
*----------------------------------------------------------------------
* Applicable Conditions:
*   Frequency Range = 1MHz - 3GHz
*   Temperature = 25 degC
*   DC Bias Current = 0 A
*   Small Signal Operation
*----------------------------------------------------------------------
.SUBCKT BLM21AG221BH1 port1 port2
R1 port1 1 72.97
L1 port1 1 1.115e-6
C2 1 2 4.147e-10
R2 2 3 165.8
L2 1 3 2.947e-7
C1 port1 3 1.041e-12
R3 3 4 24.86
L3 3 4 1.194e-7
R4 4 port2 1.000e-1
.ENDS BLM21AG221BH1
*----------------------------------------------------------------------
