*----------------------------------------------------------------------
* SPICE Model generated by Murata Manufacturing Co., Ltd.
* Copyright(C) Murata Manufacturing Co., Ltd.
* MURATA P/N : BLM21SP102BH1
* Property : Z@100MHz = 1000[ohm]
*----------------------------------------------------------------------
* Applicable Conditions:
*   Frequency Range = 1MHz - 3GHz
*   Temperature = 25 degC
*   DC Bias Current = 0 A
*   Small Signal Operation
*----------------------------------------------------------------------
.SUBCKT BLM21SP102BH1 port1 port2
R1 port1 1 429.7
C2 1 2 4.636e-11
L1 port1 2 3.585e-6
R2 2 3 860.6
L2 2 3 1.593e-6
C1 port1 3 1.103e-12
R3 3 4 12.70
L3 3 4 2.066e-7
R4 4 port2 9.900e-2
.ENDS BLM21SP102BH1
*----------------------------------------------------------------------
