*----------------------------------------------------------------------
* SPICE Model generated by Murata Manufacturing Co., Ltd.
* Copyright(C) Murata Manufacturing Co., Ltd.
* MURATA P/N : BLM21BB201SH1
* Property : Z@100MHz = 200[ohm]
*----------------------------------------------------------------------
* Applicable Conditions:
*   Frequency Range = 1MHz - 3GHz
*   Temperature = 25 degC
*   DC Bias Current = 0 A
*   Small Signal Operation
*----------------------------------------------------------------------
.SUBCKT BLM21BB201SH1 port1 port2
R1 port1 1 499.6
C2 1 2 2.214e-12
L1 port1 2 2.361e-7
R2 2 3 2.915e-1
L2 2 3 2.356e-8
C1 port1 3 7.121e-13
R3 3 4 30.23
L3 3 4 1.387e-9
R4 4 port2 2.000e-1
.ENDS BLM21BB201SH1
*----------------------------------------------------------------------
