*----------------------------------------------------------------------
* SPICE Model generated by Murata Manufacturing Co., Ltd.
* Copyright(C) Murata Manufacturing Co., Ltd.
* MURATA P/N : BLM21BD601SH1
* Property : Z@100MHz = 600[ohm]
*----------------------------------------------------------------------
* Applicable Conditions:
*   Frequency Range = 1MHz - 3GHz
*   Temperature = 25 degC
*   DC Bias Current = 0 A
*   Small Signal Operation
*----------------------------------------------------------------------
.SUBCKT BLM21BD601SH1 port1 port2
R1 port1 1 115.6
C2 1 2 2.899e-11
L1 port1 2 2.750e-7
R2 2 3 1039
L2 2 3 6.017e-7
C1 port1 3 6.958e-13
R3 3 4 36.13
L3 3 4 1.593e-8
R4 4 port2 2.300e-1
.ENDS BLM21BD601SH1
*----------------------------------------------------------------------
