*----------------------------------------------------------------------
* SPICE Model generated by Murata Manufacturing Co., Ltd.
* Copyright(C) Murata Manufacturing Co., Ltd.
* MURATA P/N : BLM21PG600SH1
* Property : Z@100MHz = 60[ohm]
*----------------------------------------------------------------------
* Applicable Conditions:
*   Frequency Range = 1MHz - 3GHz
*   Temperature = 25 degC
*   DC Bias Current = 0 A
*   Small Signal Operation
*----------------------------------------------------------------------
.SUBCKT BLM21PG600SH1 port1 port2
R1 port1 1 29.55
L1 port1 1 9.822e-8
C1 port1 2 1.847e-12
R2 1 2 18.61
L2 1 2 3.109e-7
R3 2 3 35.36
L3 2 3 3.418e-8
R4 3 port2 1.000e-2
.ENDS BLM21PG600SH1
*----------------------------------------------------------------------
