*----------------------------------------------------------------------
* SPICE Model generated by Murata Manufacturing Co., Ltd.
* Copyright(C) Murata Manufacturing Co., Ltd.
* MURATA P/N : BLM21BD182SH1
* Property : Z@100MHz = 1800[ohm]
*----------------------------------------------------------------------
* Applicable Conditions:
*   Frequency Range = 1MHz - 3GHz
*   Temperature = 25 degC
*   DC Bias Current = 0 A
*   Small Signal Operation
*----------------------------------------------------------------------
.SUBCKT BLM21BD182SH1 port1 port2
R1 port1 1 1318
C2 1 2 3.787e-12
L1 port1 2 1.643e-6
R2 2 3 582.1
L2 2 3 5.376e-7
C1 port1 3 8.772e-13
R3 3 4 22.10
L3 3 4 3.112e-8
R4 4 port2 3.500e-1
.ENDS BLM21BD182SH1
*----------------------------------------------------------------------
