*----------------------------------------------------------------------
* SPICE Model generated by Murata Manufacturing Co., Ltd.
* Copyright(C) Murata Manufacturing Co., Ltd.
* MURATA P/N : BLM21BB750SH1
* Property : Z@100MHz = 75[ohm]
*----------------------------------------------------------------------
* Applicable Conditions:
*   Frequency Range = 1MHz - 3GHz
*   Temperature = 25 degC
*   DC Bias Current = 0 A
*   Small Signal Operation
*----------------------------------------------------------------------
.SUBCKT BLM21BB750SH1 port1 port2
R1 port1 1 210.3
C2 1 2 5.724e-12
L1 port1 2 9.641e-8
R2 2 3 4.441e-1
L2 2 3 6.805e-7
C1 port1 3 8.502e-13
R3 3 4 66.12
L3 3 4 1.112e-9
R4 4 port2 1.000e-1
.ENDS BLM21BB750SH1
*----------------------------------------------------------------------
