*----------------------------------------------------------------------
* SPICE Model generated by Murata Manufacturing Co., Ltd.
* Copyright(C) Murata Manufacturing Co., Ltd.
* MURATA P/N : BLM21BB121SH1
* Property : Z@100MHz = 120[ohm]
*----------------------------------------------------------------------
* Applicable Conditions:
*   Frequency Range = 1MHz - 3GHz
*   Temperature = 25 degC
*   DC Bias Current = 0 A
*   Small Signal Operation
*----------------------------------------------------------------------
.SUBCKT BLM21BB121SH1 port1 port2
R1 port1 1 327.3
C2 1 2 3.459e-12
L1 port1 2 1.525e-7
R2 2 3 3.302e-1
L2 2 3 1.947e-7
C1 port1 3 8.860e-13
R3 3 4 38.35
L3 3 4 1.327e-9
R4 4 port2 1.300e-1
.ENDS BLM21BB121SH1
*----------------------------------------------------------------------
