*----------------------------------------------------------------------
* SPICE Model generated by Murata Manufacturing Co., Ltd.
* Copyright(C) Murata Manufacturing Co., Ltd.
* MURATA P/N : BLM21BB471SH1
* Property : Z@100MHz = 470[ohm]
*----------------------------------------------------------------------
* Applicable Conditions:
*   Frequency Range = 1MHz - 3GHz
*   Temperature = 25 degC
*   DC Bias Current = 0 A
*   Small Signal Operation
*----------------------------------------------------------------------
.SUBCKT BLM21BB471SH1 port1 port2
R1 port1 1 1212
C2 1 2 8.130e-13
L1 port1 2 5.652e-7
R2 2 3 1.056
L2 2 3 5.553e-7
C1 port1 3 5.018e-13
R3 3 4 24.25
L3 3 4 3.222e-9
R4 4 port2 3.000e-1
.ENDS BLM21BB471SH1
*----------------------------------------------------------------------
