**$ENCRYPTED_LIB
**$INTERFACE
*$
* TPS562242
*****************************************************************************
* (C) Copyright 2022 Texas Instruments Incorporated. All rights reserved.                                            
*****************************************************************************
** This model is designed as an aid for customers of Texas Instruments.
** TI and its licensors and suppliers make no warranties, either expressed
** or implied, with respect to this model, including the warranties of 
** merchantability or fitness for a particular purpose.  The model is
** provided solely on an "as is" basis.  The entire risk as to its quality
** and performance is with the customer
*****************************************************************************
*
* This model is subject to change without notice. Texas Instruments
* Incorporated is not responsible for updating this model.
*
*****************************************************************************
*
** Released by: Texas Instruments Inc.
* Part: TPS562242
* Date: 10APR2023
* Model Type: TRANSIENT
* Simulator: PSPICE
* Simulator Version: 17.4-2019 S015
* EVM Order Number: TPS562242EVM
* EVM Users Guide: SLUUCL6A – MAY 2023
* Datasheet: SLUSEQ4A – MAY 2022
* Topologies Supported: Buck
*
* Model Version: Final 1.0
*
* Model Usage Notes:
* A. Features have been modelled
*
*	1. 	Output Voltage Setting
*	2. 	Internal Fixed Soft-Start
*	3. 	EN On/off
*	4. 	UVLO Protection
*	5. 	Low-side FET Zero-Crossing(ZC)
*	6. 	Negative Over current Protection(NOC)
*	7. 	Overcurrent Protection(OCP)
*	8.	16 Cycles of Consecutive Negative OCL Results to Device Operating in PSM
*       9.      Large Duty cycle operation
*
* B. Features have not been modelled
*
*	1. Operating Quiescent Current
*       2. Shutdown Current 
*       3. Temperature dependent characteristics
*
* C. Application Notes
*
*   1. The parameter STEADY_STATE has been used to reach the steady state faster
*      Keep STEADY_STATE = 0 to observe startup behaviour. 
*      Keep STEADY_STATE = 1 and appropriate IC on Inductor and capacitor to observe for faster Steady state. 
*   2. Ground Pins have been tied to 0V internally and hence model does not support Inverting topologies. 
*
*****************************************************************************

.subckt TPS562242_TRANS VIN SW GND EN FB BST
$CDNENCSTART_ADV2
17f62b1fb318c25603aeb85644ae98a5d179ef807807791f6459efacb9d7ffc37a831b146dc0f06bb1ef275619162e6d8f7ad0dc708bf15ae1a1d5bd0ae623b2
d5d59bd295f19b6b812ac743bdfb71feb67e143fd4fed224afe5906c7ef759dc1fd37dad0db8d9579f4187a20fa687cca8a0965acc052ac92c2ffa166ade045c
4da1c97601e0991a911d071aab9cdd3d89c404bebe0fe89355c0b44372d256d0342876a348807e952e450a4ff9eaab7d16d734c82470d7d88962d31a4e22341f
e09160a24f449dafcfe00e445ee2368ae05277d1ab559d61be6367c6f4667a5167e57e2cbe533bb36343c9a1b11b9379c7fe7adfe3ce7fc9ae8b3af2043c24fe
050b54cabbf31f3f51be1612c49f26992f93b46bc40bb39305f5969eb2dd5fce40c7107d4fa55943f5a6855f3ae3d752d6a5c3244822290daeae1bd56a1e1e70
21969a5a9f25fcfcdb5ddd0831686514b67e143fd4fed224afe5906c7ef759dc1fd37dad0db8d9579f4187a20fa687cca8a0965acc052ac92c2ffa166ade045c
e7f2264d6e8cf60589c5e5ea7a7bb90cb67e143fd4fed224afe5906c7ef759dc1fd37dad0db8d9579f4187a20fa687cca8a0965acc052ac92c2ffa166ade045c
dafc8e3c17bdc02b4ef157821a1e88adb37ef5f5ea2bb009d6675b45943743483f1aa197edb3a6223cdaa06ab7c5f552b92d001de306fd0cc5b4501fcbb91656
45f3f38a949db782cf0a37a34cb4b1af6cbf1b21e89a19b57110f93ebafa0a93379df52ee96db7ed479907aaadfd771ab44176aea8d951fe37fd068ea3ddfe7c
35475fea8b6c255631cab15e8359acc76cbf1b21e89a19b57110f93ebafa0a93379df52ee96db7ed479907aaadfd771ab44176aea8d951fe37fd068ea3ddfe7c
9e6e756ffcb089481f4fdfc0fe1e3a552d593b286f8f653cbe7052e0d76f8a7967e57e2cbe533bb36343c9a1b11b9379c7fe7adfe3ce7fc9ae8b3af2043c24fe
470a86fb2437ed8f0701472647cfbc7b07cc51d4e724debe57e7b0decb44dcba36d26613106bb49d01f236e77ea1da883cdd3d33e15484429129dc15172a1770
17489df4f9f047b761253251f3cff36384f908438e364150d767d605f1afd0a3379df52ee96db7ed479907aaadfd771ab44176aea8d951fe37fd068ea3ddfe7c
143abf70ba995d84c10a3b5c09bd5233890836f4f0017d7be02bd58da13fa9293f1aa197edb3a6223cdaa06ab7c5f552b92d001de306fd0cc5b4501fcbb91656
629ccbae6a76b91757006230f008f936ae0151e259844470e39a3c8688b9c4651fd37dad0db8d9579f4187a20fa687cca8a0965acc052ac92c2ffa166ade045c
4e97bbcb4131255174189262c029a5d44fcaac17a1b93315d1d490839b8cdfc23f1aa197edb3a6223cdaa06ab7c5f552b92d001de306fd0cc5b4501fcbb91656
23550a1c148e1082de2ab0636eda67375e8c92ac753307ea1432a8f9bcc3878d84f0ad3fbe314a9e09cabb471865dee494e9d696862ef8e4fed2d7ac1fbac221
c2da812945a52744cec6d4f8b1598d1e4b8363882f46aac966ba1a8ad9926c2b1fd37dad0db8d9579f4187a20fa687cca8a0965acc052ac92c2ffa166ade045c
2d2cc579cc9ce0d14231a6b7dea1c83166849cb346224d46587fea71a0a405253f1aa197edb3a6223cdaa06ab7c5f552b92d001de306fd0cc5b4501fcbb91656
98a77c1dd3d726313964a87f45295b0db3d5fd372ae6591db2d2e4b2b4eb186436d26613106bb49d01f236e77ea1da883cdd3d33e15484429129dc15172a1770
fa5f26991895f6f6ca03f7f5820fefc5b036c7db64eefeab699b41e6598b1c891027dcf56a7194d4c43a2032ee972cea164774e5171039cfcf8ab6b104e5ecc0
faf798f56b959885e144939045f54c102f93b46bc40bb39305f5969eb2dd5fce40c7107d4fa55943f5a6855f3ae3d752d6a5c3244822290daeae1bd56a1e1e70
fa7c2b7ae7b7c168019b143928f5bea8aac29d6f7ef2e8e3b522179a7985d68ab698d91b4f971b85786e9885e19bb2c4d132a27986ec60406b25415b3d128d1d
d51ea4e260b2a8d5332835904522882aaac29d6f7ef2e8e3b522179a7985d68ab698d91b4f971b85786e9885e19bb2c4d132a27986ec60406b25415b3d128d1d
b08258e8bb7dba692c17048c881242a1b036c7db64eefeab699b41e6598b1c891027dcf56a7194d4c43a2032ee972cea164774e5171039cfcf8ab6b104e5ecc0
69f35f93c71fcda817bf11fb74f0f4feaac29d6f7ef2e8e3b522179a7985d68ab698d91b4f971b85786e9885e19bb2c4d132a27986ec60406b25415b3d128d1d
aefbed83bfd93d24a9ccf281216266a9b253db7a1c33edcfa24d953131e9e5a6f27f5c064c320c3be34da316f6e6143c00885fd0d372fadeaea577aaf2a46072
8bb643c623a42df5c6772e4a05d732db4acc3a6edf4419892f234a8b770b53aef27f5c064c320c3be34da316f6e6143c00885fd0d372fadeaea577aaf2a46072
933ee8ebdf885ec3b8d13b42ffc880078ff9fbb00ac767a682a59bdb1b0972b584f0ad3fbe314a9e09cabb471865dee494e9d696862ef8e4fed2d7ac1fbac221
b56749154322e7c79b095d415c5678804acc3a6edf4419892f234a8b770b53aef27f5c064c320c3be34da316f6e6143c00885fd0d372fadeaea577aaf2a46072
9fa0045bd6d1abca362239027beb364c42d4a78f411c0a77dd9e51a1e3976a1884f0ad3fbe314a9e09cabb471865dee494e9d696862ef8e4fed2d7ac1fbac221
5c497984336204e4f00285228e8fb5e2cbe3aa0d045788c8e18547b50282193d36d26613106bb49d01f236e77ea1da883cdd3d33e15484429129dc15172a1770
f3fdd72ef53912b3105db435b8ea4811b253db7a1c33edcfa24d953131e9e5a6f27f5c064c320c3be34da316f6e6143c00885fd0d372fadeaea577aaf2a46072
e68ea2da2a3ce649fbda1bab67b19ff6b253db7a1c33edcfa24d953131e9e5a6f27f5c064c320c3be34da316f6e6143c00885fd0d372fadeaea577aaf2a46072
852b61268c953e9a364fefbb4f242bd14acc3a6edf4419892f234a8b770b53aef27f5c064c320c3be34da316f6e6143c00885fd0d372fadeaea577aaf2a46072
8d523741b204ed9c0873bb14b6a448138ff9fbb00ac767a682a59bdb1b0972b584f0ad3fbe314a9e09cabb471865dee494e9d696862ef8e4fed2d7ac1fbac221
bf39eef642ddc8567d59c3f514ed6cf68ff9fbb00ac767a682a59bdb1b0972b584f0ad3fbe314a9e09cabb471865dee494e9d696862ef8e4fed2d7ac1fbac221
c0376833f74f1def2376d9ab905d9071b036c7db64eefeab699b41e6598b1c891027dcf56a7194d4c43a2032ee972cea164774e5171039cfcf8ab6b104e5ecc0
0312bc02ea2cbdb7dea04fcbcd1ae9dfaac29d6f7ef2e8e3b522179a7985d68ab698d91b4f971b85786e9885e19bb2c4d132a27986ec60406b25415b3d128d1d
c27645d347613e7e065a62f19a109b098ff9fbb00ac767a682a59bdb1b0972b584f0ad3fbe314a9e09cabb471865dee494e9d696862ef8e4fed2d7ac1fbac221
347968129106ab7475075bb6f5eb18e0b253db7a1c33edcfa24d953131e9e5a6f27f5c064c320c3be34da316f6e6143c00885fd0d372fadeaea577aaf2a46072
e871cae9facd7783024265ba46ef8a1c2f93b46bc40bb39305f5969eb2dd5fce40c7107d4fa55943f5a6855f3ae3d752d6a5c3244822290daeae1bd56a1e1e70
ae7163812ec3f605f7b6ea5408b948c4701bfb7de18a39ab689f36d8da6dd3e084f0ad3fbe314a9e09cabb471865dee494e9d696862ef8e4fed2d7ac1fbac221
bdadea5cac9461730f7b276b23884a410ff061f3f3de0a5db6cba0a5758ee07b230b7324b05b063823e16a99b6564b91bdd07e8ad9ad0e2a87ca30373f91c079
4f40bc9a0008bc6ff2c645645814ad4338f1fe869ea9ebd1f0ae365fa2011b52915e194a6e7710d6db70b166fa35f8dd7c3d6df6988e833bece17a436d8c7aa1
24b70e788ed17298f2f63d8aca1fdba03f1aa197edb3a6223cdaa06ab7c5f5527a0b9182c8dfe2006b7dffe77f3efc4ef67d0ce39a167054b1ec0390697df77d
4fe417ee09a91d8f2e392546a8bd4d5a70f0a300dffb674020957155f84c7e5fe4b1f018dad504a3a21a72b65e0dff24327ada42da8f8b5ad62e9001584a2db8
4f40bc9a0008bc6ff2c645645814ad43c0c801c380cd0a71ce3ecd7eb44ac2d5beda4a80ccdeb468d9093d5cbd568f96dabb01f0bfba6ff0cd03117045e99699
b5eb77929ba72bf1f50c7fc9d727eaa761df169ee867b3cec2797adb122baafec285f58f24ffba0d4ba7407bb17936c6c9817fcf660df76e3e0d6a09e1cbc2fb
28d715b889d8418aa8c373f8edf6174f0ff061f3f3de0a5db6cba0a5758ee07b2a71a342369b795aabc66760ce6e1cd852e8cfec30b66a0bea8a0558776a7467
4f40bc9a0008bc6ff2c645645814ad43bd1a798fec061608b6f81340aa58ac6ebeda4a80ccdeb468d9093d5cbd568f96dabb01f0bfba6ff0cd03117045e99699
b5eb77929ba72bf1f50c7fc9d727eaa761df169ee867b3cec2797adb122baafec285f58f24ffba0d4ba7407bb17936c6c9817fcf660df76e3e0d6a09e1cbc2fb
91e432c946bfea2103749318d71344700ff061f3f3de0a5db6cba0a5758ee07b4cb8e6b4419e07f0adadc41f531cd6c9bdd07e8ad9ad0e2a87ca30373f91c079
4f40bc9a0008bc6ff2c645645814ad436a39f7a3c6a898afadad49c0edd72a4d915e194a6e7710d6db70b166fa35f8dd6161a33203d612457a35582e72202c22
6dbd1664dd062f0564868103e6f1998910e1bc78197452f0b344c094c464d6db1dd67e5d5b9b317fa8b3c42844f4ecb401f3c48c2494ff51123ed7b72f484062
4725569eea501a7e5383e0652691ef54ae6eb3a6f20880f9757070053acb987c3587594b604d77d9c4d932c23e28752d327ada42da8f8b5ad62e9001584a2db8
4f40bc9a0008bc6ff2c645645814ad43d8d5632b46ad3100a0809fc765e26830915e194a6e7710d6db70b166fa35f8ddc70a648d2214d64a55588f995bba2408
52139b00c919da76cf970b493a5e596067e57e2cbe533bb36343c9a1b11b9379749e47826cdc0d48e4ffa2c57ce034477c8bf6e65676b28bb7861502e3910a99
b7ac0e9f3490ca814bf955e0308f188b0ff061f3f3de0a5db6cba0a5758ee07b8d953d51185670f8a165812491bea196bdd07e8ad9ad0e2a87ca30373f91c079
4f40bc9a0008bc6ff2c645645814ad43776e8d03d177d67b589cadb2b0cb8e91915e194a6e7710d6db70b166fa35f8ddc3ff58eff98afd6e48c33b8d5a0054c3
61dcf9793dbde0f2206fa19cb6940fa7cf062fbfce0bcab32a8af869999362aec0a14cb7c598a9719f6e70a12c76fb88e893fc1ff0cd858c0b943c8e71bed6be
472179a2133b7660e78e4fbfab4042f80ff061f3f3de0a5db6cba0a5758ee07b70c8982f6d83e4ebdd6c9853d7253f45bdd07e8ad9ad0e2a87ca30373f91c079
4f40bc9a0008bc6ff2c645645814ad43e747ad1c137ce6837394fe4b9883e3f6b10aae7db9b8afa9c44e2a1e7523286afc9185cae5fa1b97e9ce6eb0c23c910e
e0b666c7464d959845075df0b53d6323119ba72133d0f8dd7475cc6740ade9c88b4ced1b75644a07a15a737de1b75b0f8d942182e179bdc40222c5d18a6389d9
6de1f44b779cfd893b36ee0e1b7ed7b97d6a68dd558ae7b62fbc110d03302c6e2521c4940f27d82f9db5a9a90cd6162152e8cfec30b66a0bea8a0558776a7467
4f40bc9a0008bc6ff2c645645814ad43b8121e14403d915318fd14111052fb4eb10aae7db9b8afa9c44e2a1e7523286afc9185cae5fa1b97e9ce6eb0c23c910e
e0b666c7464d959845075df0b53d6323119ba72133d0f8dd7475cc6740ade9c88b4ced1b75644a07a15a737de1b75b0f8d942182e179bdc40222c5d18a6389d9
9c22befab7d00f5ae4bb95728aff694c4c056dd9281348acbd5342c457f13a43f1ffd4af6c7457ec50401e92475aec27d169e1d3fc301d03a9bd260a5e3af094
4f40bc9a0008bc6ff2c645645814ad43b4d17bcee0cba026d70f4716224472a4b10aae7db9b8afa9c44e2a1e7523286a5e926174d7ad6dfed72abbf4e21dfbab
850cc5dfca7143c35a7806b5e1804bd7119ba72133d0f8dd7475cc6740ade9c88b4ced1b75644a07a15a737de1b75b0f8d942182e179bdc40222c5d18a6389d9
5ab0bed5959c0fc9851058c30827bab97d38bb5687a0cb85ca5c74fe3ee5988808efdb5507b115d36866e02203c8df30bf2a989a2afc1004e4df51ce62646a9b
a7b7bfbd14990d2a062155765a90f0796154e3cfd788c26ba0b7cb3c290cdd0d811df63443905ce4391be71afee46b1d02ccec0d4b4d247276f949d57d5f9b9a
32b6d3887741683df9bfe9cfe453dba5c73d96b4f869fc0a9f37c0eeeb0127f997acd2d5e16f215830726433e3958d8059dc634feda8c818bc301584fad81db2
22f315950ea606d65ae24f69b744ad921428ec750a4fa3dfe6607087d2b42c9e4161f10608f4ef983375a3013771acc08d8825d4fea89faffb42775563923a16
2523a11596fb4820480085d25e882ab5a12b08ebfba513ada40ba093854219ff5dbaf223577eacaa1bfdf46fa461081dd2da79557bf3c30d7876b23bf2e87535
8179704b75e8329ae77e25511754a7a62a6e9d35a3f6b9561ae26598077c67247ca78ed9f1ad532ae7c7df47c3cade2116d734c82470d7d88962d31a4e22341f
e16a95b7f3ec9cc0fff4402ed52621fbec22246746b7ab663cb0e8a0759e0d4cb44bd6b4ea77619165b489fd29c664a85ea95b91330e9a4616da17eca4026823
7ad82854c301b359b8c0a7d0beb42103ceabbdc5a0ff15db7756a921ae78849d811df63443905ce4391be71afee46b1d02ccec0d4b4d247276f949d57d5f9b9a
b8bc4e5e514916e08a19f4f17a48b59e8e3cd78bde57a504d6ea7bd3f0b4c80e21072e93fe60b260f83d2d24c045e637b7b682771265aca4891d9c589f25f792
82a5e89b3a2e9b558684b8554c118528104a441a2671cfa6103c06ee32c09c1d81ab7a94aaf7da5bef9cea20b3f19b686534fc400d01fa414a9fb605b2d826a0
0a46eec38a8929f4db1e298807d99ad9615f6aa47309e38d52c2c3c2183c5640347db7a4ca47e4323c592422fa41d6b447b68481901cb797215b75b9401f636f
f1e7bc7822d1b043311a78fab35291708af227b7eed01e8959124a50a9db9769183cee42588b6ad598a16032c9b23a4dfe4a4b982111167e20578131ca09cfd9
ac76216ff21e8bd6f53c3abfdec66e5ff27f5c064c320c3be34da316f6e6143c698717d953b192a98ce2157a46a013edbc1a885a379cb9a64608e615f76c4319
e63ad38de94e9342526b7b5729cd99f3a6be1c6449885d400d9a5ede82bbf1eb5491ec8384fb6d6e4fc05bfbafee14ad5ea95b91330e9a4616da17eca4026823
7ad82854c301b359b8c0a7d0beb42103e78ee0e598972f0e64f8dc42701507e261df169ee867b3cec2797adb122baafef88d51a2a1b8b2c9a47771035a1f89b1
0ad53d57b6d88caf407068b8511510219a66e833dc7f5897099fbcf02857244c9a8ce326f45b0db9dad4f274cf72c8ea74068da8be66bca97f166aa37e1f109f
67950205e0fce0552d3d0de016a8a2b036d26613106bb49d01f236e77ea1da88d09945c4b3d6115ec5fef87e8e92da629bf1912ac3fa980757fc290a81f4a3b3
f3a6a4abd7a9ec50a83635d522072b5bbe523d1bf44933f2e2c42d5ea0b7f3f8ed7ad5a67ea8915e1ebc123c6c5ad97716ee9602cfd575e9b4be4306e34c7cfd
a674dd3ab68f7487dae2918fe7ced6a461b96c5342a859e8e077f4935674e16e0aa46e0b063dc7d436478357e87b11875a1132678d24e6a7ac3afcb5518583a9
058a8a939fc3164679517933e2d963b6aac29d6f7ef2e8e3b522179a7985d68ab698d91b4f971b85786e9885e19bb2c4d132a27986ec60406b25415b3d128d1d
ce39f8e17e7fdba3fb4820f112173bc952e7ae4e4ab7c090574500841b6382d85cf15afe746fc04ad73aee93bedef2f479fbc15dc56ced58e3c894eba972b1c3
07cf21c2508bd9085f35a5a9d73d747361df169ee867b3cec2797adb122baafec285f58f24ffba0d4ba7407bb17936c6c9817fcf660df76e3e0d6a09e1cbc2fb
59819cd8126bb5461394b205aa48c642267424265ff847d0871acbacc5ee1f8e183cee42588b6ad598a16032c9b23a4dfe4a4b982111167e20578131ca09cfd9
8e6c290abd264d4edcfbbfad94316280b4725799895d6ade56d5126ddc104f47e551507db56a168fb1df68882749a4a35edbf6918f31ae3cad9189e769ccbd18
772afee44d883e674deec54ecd126ce6c921342e7d813b1721bde0c1da58229e183cee42588b6ad598a16032c9b23a4dfe4a4b982111167e20578131ca09cfd9
8e6c290abd264d4edcfbbfad94316280b4725799895d6ade56d5126ddc104f47e551507db56a168fb1df68882749a4a35edbf6918f31ae3cad9189e769ccbd18
4a118b9510b07683fba2094209e399f8fd81e628703fb8d15be883a2299109e03834431db850ea4b1ff01b2e811326bf410cb6e2e3869ba05513680c27b9eb6f
2c5f64cf07541e99e7cef618f578e9ba2f93b46bc40bb39305f5969eb2dd5fce40c7107d4fa55943f5a6855f3ae3d752d6a5c3244822290daeae1bd56a1e1e70
d73ad3a1e8ac34a5900296a33a754f1df1fc5f7135518302c181aacc3feea90a9bfe0fbce1feafcb6a5bc0f281db92c3ae01f2200a2eb1c980cb8c85a646fe3c
e2b57a0732ad7ae0c3097f5ca773bf491122ae25f74a12a34cad6f7191c7c43210e1bc78197452f0b344c094c464d6db05629c50d3572f7fc4c9cdda12162058
c5fe5daf7231b33514ee45e853488b7ecd87df6cf95d563e0b909d50b3b6b089eae120e21a7b8212f995bea9ed65dd2d0e3252940cc15fee77b95a2c1995bb08
1a6927d4845433c95126164527e2adcb115d8b68da7558248d08939ec452352b67e57e2cbe533bb36343c9a1b11b9379c7fe7adfe3ce7fc9ae8b3af2043c24fe
6123082a7028729c90ed3502851499e9cbf8b6ddf37e8ef1ad481609550e7d7f074df99044a8d6644a88269b442e21b75f3290a1c8ee82050b83436c34a9f97c
31afa39c37614d494d8850c9b23e6a4b8e3cd78bde57a504d6ea7bd3f0b4c80eb83fd581f52748df50b10b9461b0143a2d3ce566039b2fe188f448cd971ae2ea
c6fc36698ab5f40bf5edee44554c46af379df52ee96db7ed479907aaadfd771ac7cfdb8b5fccefef2856ce06cdb3dae0ab22486d4c964214badf29942164a190
a1db1055e251fdfabb4db0cf32b714f98e3cd78bde57a504d6ea7bd3f0b4c80e29e1c3aea5db31628fdce36ee5df0b3ef32a172c5f054cda438e978367680415
955f7f49280c1370f903605af0591b127b714867fb6b77440afdd479248021bf0c69c851c7f011e29a452e3817b46596d2da79557bf3c30d7876b23bf2e87535
0629127c812cbd0f2087e0fc09c56814d22de86809ab88d255a6a07ff792291dcf062fbfce0bcab32a8af869999362aef8c41a847bec6474f8f0a09d4f9fc94b
ca00196c9d328abe8c37a059e5f155c6e9c7b5f16e398a359b7ea0507bd4921b183cee42588b6ad598a16032c9b23a4d27603cfc9eae3c824a067c07d4956268
231fe72ab32f95817556221f96e77c72f1fc5f7135518302c181aacc3feea90a9bfe0fbce1feafcb6a5bc0f281db92c3ae01f2200a2eb1c980cb8c85a646fe3c
e2b57a0732ad7ae0c3097f5ca773bf49440b366da56b23ddd1e7420555ca688e119ba72133d0f8dd7475cc6740ade9c81b2270b3aa25c31d058003b762eabaa9
94b563b9aaf647bed3eb97cc01cfa666393b808de78585cd7517856a93d22e7e90df1de7df7585994610cece9cc1d24ad51a895dd73df63001a0ea7ad313872c
f6f08088729dab5fed4d09688c425f0e477813d0e784bef6b006c52232b6c8f1b08d086ac5db4e495f853f64cbcecd6502ccec0d4b4d247276f949d57d5f9b9a
3c729c5c86152365e5cf1d490e540d2efd7345c866a3340c388d39b400ecbc63183cee42588b6ad598a16032c9b23a4d27603cfc9eae3c824a067c07d4956268
527f89d44b98c236693abbe6c66437a4d5099da58c786abb680c86b68fddf160eae120e21a7b8212f995bea9ed65dd2d0e3252940cc15fee77b95a2c1995bb08
e45023c91df040de8841ffded4def998d22de86809ab88d255a6a07ff792291dcf062fbfce0bcab32a8af869999362aef8c41a847bec6474f8f0a09d4f9fc94b
6aad7ac84de1b106e563267358e05e8d12731c584fbfebafe578dabb7ca2a778183cee42588b6ad598a16032c9b23a4dfe4a4b982111167e20578131ca09cfd9
ac76216ff21e8bd6f53c3abfdec66e5ff27f5c064c320c3be34da316f6e6143c698717d953b192a98ce2157a46a013edbc1a885a379cb9a64608e615f76c4319
165448ba3ea88cb7472be2788ee093a4254d6cde91d62639f28772144fa9e781584b4580c3c881d2771c0946e80aa7324c839004d988aea1ab3ea61f8824206e
fef871566538de36f5171509156d71022f93b46bc40bb39305f5969eb2dd5fce40c7107d4fa55943f5a6855f3ae3d752d6a5c3244822290daeae1bd56a1e1e70
8a370c8c2d413676e9a922ed72abcbb01a3393ebd49189c25d05a915f335162bdaaea2fd612c60001a49732ab5639fc4deb89386fea999edadea4d1da9d1fd41
af20daa79f935b3cdd2db9bbe0f38a9d53fa11e3536798fa2380a793a4ba3cfa1fd37dad0db8d9579f4187a20fa687cca8a0965acc052ac92c2ffa166ade045c
28ce851cde00a416284b9e0ee622c39d5fd479892d42a77bb969a91416e1df741127f1f92679157e2ffad9ec500edff3f3937570ab8bc306cf89bcdb76915e46
ab857b0f8c9a3196d84d80d435e36a5bb9f0de68b00c37a5b25f1d6c333d878c13ba6d705bb78a00dce2382b0139a0b39d1d11056c4867650b523bb84d6b8469
650d141cc0e7c007c5e6c2ff1a3f3a0ef775faee01e0b57e74e41f5986bda73a58035fbaa3cbc5d069a503c23a28b20094012c5c7f1bf0d854fb6e1835c28b0b
61b0dbe90f4a4b87f79efecfd255462d119ba72133d0f8dd7475cc6740ade9c88b4ced1b75644a07a15a737de1b75b0f8d942182e179bdc40222c5d18a6389d9
fcc1033074571cf78367d476d0b2130bf1fc5f7135518302c181aacc3feea90a9bfe0fbce1feafcb6a5bc0f281db92c3ae01f2200a2eb1c980cb8c85a646fe3c
e2b57a0732ad7ae0c3097f5ca773bf49440b366da56b23ddd1e7420555ca688e119ba72133d0f8dd7475cc6740ade9c81b2270b3aa25c31d058003b762eabaa9
89a79223b47ac7353e1978760a48dea47bbd4d0784b8f7bdf5aeb424e29ba1958393103dae7a1977c4b2d61b9df3bcc7445d798484d9362aae85b40e4d749868
3b34c176919ee202604faf3201a6a161e39a120c7bea70ab14925ae78faa3ca277f0e3afe97d4b22174800d05973ae9eea3d6377226900b3916956e57e7fb693
7fbc0267905de506e801492798a1b5fa2e16ac772680f8c3353155efa1d3bbbe584b4580c3c881d2771c0946e80aa7324c839004d988aea1ab3ea61f8824206e
87df0c2d669cc34b488ec62629d75a3a3f1aa197edb3a6223cdaa06ab7c5f5527a0b9182c8dfe2006b7dffe77f3efc4ef67d0ce39a167054b1ec0390697df77d
f168a3c67031932ceeb433ca374eb6d68ac35904555c77d06a2b4f0cb2515fcd81da267900d0f4956fabc08808dfd60d20beb5a95276adac99c39c598a9cb44a
7cbe0445d64d19bca4796a5a9e56e8766dd02d133c3814398ab7fe4cd4ccdbffd6a6d2aa8fddbdc7d41ae4f2f9f9fc6712edb0569464a273ae1b706ed612faee
d0cf526bf5908923399a8bc7f26e951d10e1bc78197452f0b344c094c464d6db1dd67e5d5b9b317fa8b3c42844f4ecb401f3c48c2494ff51123ed7b72f484062
77d374b81efe7a0e2adbdfcbf1c573a3ecc1cf962590ac30a3ad4a7075a54fac4dccab11fec81a781d2ab0678f38ae020e3252940cc15fee77b95a2c1995bb08
e45023c91df040de8841ffded4def998d22de86809ab88d255a6a07ff792291dcf062fbfce0bcab32a8af869999362aef8c41a847bec6474f8f0a09d4f9fc94b
86ef67ba746cac7304feaa586f3f44637d4bed17d7d522d349669fc3b00b9fde183cee42588b6ad598a16032c9b23a4dfe4a4b982111167e20578131ca09cfd9
ac76216ff21e8bd6f53c3abfdec66e5ff27f5c064c320c3be34da316f6e6143c698717d953b192a98ce2157a46a013edbc1a885a379cb9a64608e615f76c4319
3dd835ffd90685c73d97aa594c7a7f6c8e3cd78bde57a504d6ea7bd3f0b4c80ea66d05eddc118c7d4f3ce447507736f59f9fbbabb89448aea60ef5b1cbec0741
17ee2e663805fa8e46ba5beb324eee9f1770676fd8f864cb40a7958244a4f0715edd4e06ccfbb59d02d91b15cb8ffc06af9a4a6301dfeb8db0f5d2ee18c24db3
e89f7f827ce676711f510247a61785f1b036c7db64eefeab699b41e6598b1c891027dcf56a7194d4c43a2032ee972cea164774e5171039cfcf8ab6b104e5ecc0
5ac748556fab44b5b3f1644db67f6e14cab1f315f6e0bd996b48c12ae2d9a67beae120e21a7b8212f995bea9ed65dd2d0e3252940cc15fee77b95a2c1995bb08
e45023c91df040de8841ffded4def998d22de86809ab88d255a6a07ff792291dcf062fbfce0bcab32a8af869999362aef8c41a847bec6474f8f0a09d4f9fc94b
4b8b830d7823dcdb3165213925911bbd1dcec64a1fac1b4e3e8b78af6a9b5746183cee42588b6ad598a16032c9b23a4dfe4a4b982111167e20578131ca09cfd9
ac76216ff21e8bd6f53c3abfdec66e5ff27f5c064c320c3be34da316f6e6143c698717d953b192a98ce2157a46a013edbc1a885a379cb9a64608e615f76c4319
f9c92b6ffaf537b9b5646c7ad35eb47da59a9a974776b745fe60279c4be2c30197acd2d5e16f215830726433e3958d8059dc634feda8c818bc301584fad81db2
22f315950ea606d65ae24f69b744ad92d1be70122c5a95a541232bb9b503a4daa5607e43da8148475c2da0ebbadf041547b68481901cb797215b75b9401f636f
5e02b69f67fe058878e6ba760ac0e1f18aa1abc5f60d4f8cefb5f890197fe4239bfe0fbce1feafcb6a5bc0f281db92c3ae01f2200a2eb1c980cb8c85a646fe3c
68d7243cf527d31dd086166f1854b214cf062fbfce0bcab32a8af869999362aec0a14cb7c598a9719f6e70a12c76fb88e893fc1ff0cd858c0b943c8e71bed6be
99ca57e71829a23797ec027a5a37c2729d13ba70339cb3141945d0cbfc96ba3c5df6a6a7a0a32c767a53943ba1c033c374068da8be66bca97f166aa37e1f109f
67950205e0fce0552d3d0de016a8a2b036d26613106bb49d01f236e77ea1da88d09945c4b3d6115ec5fef87e8e92da629bf1912ac3fa980757fc290a81f4a3b3
3979b0d1fcace426f55bcd58c88077cb988b20091e902836353f6afb62280afeb36eb56a2d05e04f7d0cb169409ab94abf2a989a2afc1004e4df51ce62646a9b
a7b7bfbd14990d2a062155765a90f0798e6c290abd264d4edcfbbfad94316280b4725799895d6ade56d5126ddc104f470c1ef10fa5bed4cceea82cc4152739be
7b9b7493ad78a1c4c316c5ad97e37f71fac07d036914d85c9aadf1473b30e7a1074df99044a8d6644a88269b442e21b7769c46d6f94ab0e9914593d273f901a4
3df50f807f5072ae7494cd2e5c77f7a6e5e94a7bcddbe908dd90236bc379a6db47a7eb3c5526848655966c96d0774fb27a54b4a62a9eb7107154f5a69bc004fd
1fcdb0bfaefc06fc37b11516a344a652d3516f02a15a55d6f419736f9e4831e910e1bc78197452f0b344c094c464d6db05629c50d3572f7fc4c9cdda12162058
12a70fd9628b86fd5f39386cf6e0db87c9ab9f99f150717955f1b3f90c563d52183cee42588b6ad598a16032c9b23a4dfe4a4b982111167e20578131ca09cfd9
ac76216ff21e8bd6f53c3abfdec66e5ff27f5c064c320c3be34da316f6e6143c698717d953b192a98ce2157a46a013edbc1a885a379cb9a64608e615f76c4319
3ae014565a74ad5b86c852f61d8fdf80cba7ef3605e561d200ab80584d8f012deae120e21a7b8212f995bea9ed65dd2d0e3252940cc15fee77b95a2c1995bb08
e45023c91df040de8841ffded4def998d22de86809ab88d255a6a07ff792291dcf062fbfce0bcab32a8af869999362aef8c41a847bec6474f8f0a09d4f9fc94b
b8393ff0c1f240d369b8ca2c99a148081bdccd9009f97348fed062cce3000f10183cee42588b6ad598a16032c9b23a4dfe4a4b982111167e20578131ca09cfd9
ac76216ff21e8bd6f53c3abfdec66e5ff27f5c064c320c3be34da316f6e6143c698717d953b192a98ce2157a46a013edbc1a885a379cb9a64608e615f76c4319
9bb1d71ac4d50e7d7343f0a3f59c64691ff8b0f6770f9a9d32af04ca996c9ffa584b4580c3c881d2771c0946e80aa7324c839004d988aea1ab3ea61f8824206e
708aadd843ddac01a3f239657cc44ea602de5a25887589d8c64fb0df05f8b73310e1bc78197452f0b344c094c464d6db05629c50d3572f7fc4c9cdda12162058
e5f8cdbde02d3c0c34b5e89e97e6ab7fa9dbed3a02dd7b9c0a08f2701fd052a6416f3054b6d62ccecd6a989bc131821a0e3252940cc15fee77b95a2c1995bb08
4ad700470c7f1976fb08aa78c34724be21ce3ef9c774afd2e72a37d7bf9f35d57ca78ed9f1ad532ae7c7df47c3cade2116d734c82470d7d88962d31a4e22341f
83d165da674d89028d81ce181dbd15d0cd987120032e4342f957a16eab214f5547c2234b0a69ef047439240b1dff40a90d78be1ecf1f2d2dc25fa36bab6d2701
961f57136ab429fc131f5d03025c21d71fd37dad0db8d9579f4187a20fa687cc279c534b4af6dedbe090559ff85c2a0ecad611bab1980bdc8165ec444709c316
1fc6554ecb1c8c13a2c48face8c39e46eed225dafb40d3ee5ab5b9a16aa288b5efa98568f63bc0739c665dbb965acbe7c29d9640b76b73037fd61a7de55d0c59
2fa88028ef7e48360ccc1f16cf15f8bd6d3758ab77d86e9115cab0a9e33c1d807ca78ed9f1ad532ae7c7df47c3cade2116d734c82470d7d88962d31a4e22341f
fe9338a0b31be2c42538d3cd2814247691cce729a935c41f594a75c8b4730acb9a8ce326f45b0db9dad4f274cf72c8ea74068da8be66bca97f166aa37e1f109f
67950205e0fce0552d3d0de016a8a2b036d26613106bb49d01f236e77ea1da88d09945c4b3d6115ec5fef87e8e92da629bf1912ac3fa980757fc290a81f4a3b3
99e863304439ce72f2d830c01807b3834d127d48fda8811bcb5e1c820ca1b82fe17d477793f7b2a0416529a4e25110707a54b4a62a9eb7107154f5a69bc004fd
1fcdb0bfaefc06fc37b11516a344a652d3516f02a15a55d6f419736f9e4831e910e1bc78197452f0b344c094c464d6db05629c50d3572f7fc4c9cdda12162058
81f6f1fee8687aa8c420f4f479793ef47ed9fa386699ee87a7c857c4e4cb1236183cee42588b6ad598a16032c9b23a4dfe4a4b982111167e20578131ca09cfd9
ac76216ff21e8bd6f53c3abfdec66e5ff27f5c064c320c3be34da316f6e6143c698717d953b192a98ce2157a46a013edbc1a885a379cb9a64608e615f76c4319
9d71fa0e83452054f8d3f3c07c183945edf6a022230c9b615495ba76fb45a87de17d477793f7b2a0416529a4e25110707a54b4a62a9eb7107154f5a69bc004fd
1fcdb0bfaefc06fc37b11516a344a652d3516f02a15a55d6f419736f9e4831e910e1bc78197452f0b344c094c464d6db05629c50d3572f7fc4c9cdda12162058
6c7ff00395a9e75ff669e7f5ac81a2af2638e854408e399fa573b70a09f3abd9183cee42588b6ad598a16032c9b23a4dfe4a4b982111167e20578131ca09cfd9
ac76216ff21e8bd6f53c3abfdec66e5ff27f5c064c320c3be34da316f6e6143c698717d953b192a98ce2157a46a013edbc1a885a379cb9a64608e615f76c4319
a93adc224cc06f56c345ba60cfe5f8ecf5ee4d8f0989c190e9941a35d2d3b0ff0c69c851c7f011e29a452e3817b46596d2da79557bf3c30d7876b23bf2e87535
8179704b75e8329ae77e25511754a7a676b88257175ae384afec80e8b2270485119ba72133d0f8dd7475cc6740ade9c81b2270b3aa25c31d058003b762eabaa9
d5fe21c9dd4adfd623c24e54b65a3dc941f22f049e7589903a6027e0072bc2e2183cee42588b6ad598a16032c9b23a4dfe4a4b982111167e20578131ca09cfd9
ac76216ff21e8bd6f53c3abfdec66e5ff27f5c064c320c3be34da316f6e6143c698717d953b192a98ce2157a46a013edbc1a885a379cb9a64608e615f76c4319
6ea51ef0b31f960157f46c4c33da66ec27f85378011f562852dccfef73b1c8b3527c09ef4129cbabaea05d6666f17c491ae554ff9dbcab5a04adfc7b508048ee
0e043dc662cbe73209564e086feeeb8727f85378011f562852dccfef73b1c8b3f87e377e48ee8ae3af78e08c8436b4b030d66a55cf5ee34bd091e9231e5bd2df
58ac94286e2593d74720ee418e0c157684f5c7455a183af0bf63c1ead08e009991d5803384fbe1b3a08ace92c91489faf82fc7b6a4d60b17343fd668bf6dd3bb
e388c60aa9a280391c9c0354d64217e998eee6ef43dd82982780f1c9684a9b732f93b46bc40bb39305f5969eb2dd5fce7dcfa9e51571e9e5d6c4f1431487bab0
0bd81ac7d36c884fc671da319f6f8164616164fca44693d35c07ae35b17a7ddc074df99044a8d6644a88269b442e21b7769c46d6f94ab0e9914593d273f901a4
3098925c4cc6246626d98ffc9c0ea3d64468b2d969c0b0b80a5aa0fe4b5cf3f5e17d477793f7b2a0416529a4e25110707a54b4a62a9eb7107154f5a69bc004fd
1fcdb0bfaefc06fc37b11516a344a652d3516f02a15a55d6f419736f9e4831e910e1bc78197452f0b344c094c464d6db05629c50d3572f7fc4c9cdda12162058
fbba21638d9b7f516c67f59196afb150a98c748c7bb9b107fd1fabd41ebe56639a8ce326f45b0db9dad4f274cf72c8ea74068da8be66bca97f166aa37e1f109f
67950205e0fce0552d3d0de016a8a2b036d26613106bb49d01f236e77ea1da88d09945c4b3d6115ec5fef87e8e92da629bf1912ac3fa980757fc290a81f4a3b3
a068f1e074cf392475171d9298808861b376006dec58a18e8dda5a376472f74c1b79c7727d55d1d71fe71ae034e6ad9aaff9497134cb578c3f9a092cfa3f0559
3b34c176919ee202604faf3201a6a161e39a120c7bea70ab14925ae78faa3ca277f0e3afe97d4b22174800d05973ae9eea3d6377226900b3916956e57e7fb693
5321e6d7dba104bd9ed46e4a412aaa9a1997ab1e4f76f0c2abb41561d862cb5c183cee42588b6ad598a16032c9b23a4dfe4a4b982111167e20578131ca09cfd9
ac76216ff21e8bd6f53c3abfdec66e5ff27f5c064c320c3be34da316f6e6143c698717d953b192a98ce2157a46a013edbc1a885a379cb9a64608e615f76c4319
dcbcea1eadeb1cefabdb326217d36c8f138d32a0817ba502d92850586254c5885491ec8384fb6d6e4fc05bfbafee14ad5ea95b91330e9a4616da17eca4026823
7ad82854c301b359b8c0a7d0beb42103e78ee0e598972f0e64f8dc42701507e261df169ee867b3cec2797adb122baafef88d51a2a1b8b2c9a47771035a1f89b1
a7eeaf25f0ebdb3af1035fac885d44e045e0bf80e0b02d583ef0c38d47e1c11ddde10b94659b9664b97323b7b2caa73808a523d41a02047340c62c2df51ea280
142b35610eec570456592d011d7fcf43379df52ee96db7ed479907aaadfd771ac7cfdb8b5fccefef2856ce06cdb3dae0ab22486d4c964214badf29942164a190
5f88639f4c44705efd20340d0fc73a0c3515864c37cff53356c295db05c774851fda0689db1dee3c3427cccf450d15c27a54b4a62a9eb7107154f5a69bc004fd
1fcdb0bfaefc06fc37b11516a344a652d699ae5c283c524225e83b42d40e9b9ab08d086ac5db4e495f853f64cbcecd6502ccec0d4b4d247276f949d57d5f9b9a
36da97d01ff3741fbbab97c99354b097c784743e64158b99d54fba3a72d0b78c47c2234b0a69ef047439240b1dff40a90d78be1ecf1f2d2dc25fa36bab6d2701
961f57136ab429fc131f5d03025c21d71fd37dad0db8d9579f4187a20fa687cc279c534b4af6dedbe090559ff85c2a0ecad611bab1980bdc8165ec444709c316
9de135b0b1be6bbea2e6fcd8d0ac8d04f1fc5f7135518302c181aacc3feea90a9bfe0fbce1feafcb6a5bc0f281db92c3ae01f2200a2eb1c980cb8c85a646fe3c
e2b57a0732ad7ae0c3097f5ca773bf491122ae25f74a12a34cad6f7191c7c43210e1bc78197452f0b344c094c464d6db05629c50d3572f7fc4c9cdda12162058
cbcc2ff34e68930f711377a7921cfff82211dced4c7637a3eebc119cb29a6554f06de11028469f18b0d5dc3dae1ff0793154af5525668afb677ec4abd7ccd7c5
22f315950ea606d65ae24f69b744ad9221767bee57739328024ccd4e28d2c06bb036c7db64eefeab699b41e6598b1c896fbfa429aec97a20c771e3023528680b
81697adadecd97252e5f6264998761ad3c0931eb69c645a4e2f4a8ee8a66b005183cee42588b6ad598a16032c9b23a4dfe4a4b982111167e20578131ca09cfd9